
  EPA STORM WATER MANAGEMENT MODEL - VERSION 5.1 (Build 5.1.009)
  --------------------------------------------------------------

  
  *********************************************************
  NOTE: The summary statistics displayed in this report are
  based on results found at every computational time step,  
  not just on results from each reporting time step.
  *********************************************************
  
  ****************
  Analysis Options
  ****************
  Flow Units ............... LPS
  Process Models:
    Rainfall/Runoff ........ YES
    RDII ................... NO
    Snowmelt ............... NO
    Groundwater ............ NO
    Flow Routing ........... YES
    Ponding Allowed ........ NO
    Water Quality .......... NO
  Infiltration Method ...... HORTON
  Flow Routing Method ...... DYNWAVE
  Starting Date ............ AUG-23-2013 00:00:00
  Ending Date .............. AUG-23-2013 03:00:00
  Antecedent Dry Days ...... 0.0
  Report Time Step ......... 00:01:00
  Wet Time Step ............ 00:05:00
  Dry Time Step ............ 01:00:00
  Routing Time Step ........ 1.00 sec
  Variable Time Step ....... NO
  Maximum Trials ........... 8
  Number of Threads ........ 8
  Head Tolerance ........... 0.001500 m
  
  
  **************************        Volume         Depth
  Runoff Quantity Continuity     hectare-m            mm
  **************************     ---------       -------
  Total Precipitation ......         0.000         0.000
  Evaporation Loss .........         0.000         0.000
  Infiltration Loss ........         0.000         0.000
  Surface Runoff ...........         0.000         0.000
  Final Storage ............         0.000         0.000
  Continuity Error (%) .....         0.000
  
  
  **************************        Volume        Volume
  Flow Routing Continuity        hectare-m      10^6 ltr
  **************************     ---------     ---------
  Dry Weather Inflow .......         0.000         0.000
  Wet Weather Inflow .......         0.000         0.000
  Groundwater Inflow .......         0.000         0.000
  RDII Inflow ..............         0.000         0.000
  External Inflow ..........         0.002         0.022
  External Outflow .........         0.001         0.012
  Flooding Loss ............         0.000         0.000
  Evaporation Loss .........         0.000         0.000
  Exfiltration Loss ........         0.000         0.000
  Initial Stored Volume ....         0.000         0.000
  Final Stored Volume ......         0.001         0.012
  Continuity Error (%) .....        -9.215
  
  
  *************************
  Highest Continuity Errors
  *************************
  Node PMP93029 (8.78%)
  Node PMP92891 (4.95%)
  Node PMP93095 (4.64%)
  Node PMP93101 (4.53%)
  Node PMP92990 (3.60%)
  
  
  ********************************
  Highest Flow Instability Indexes
  ********************************
  All links are stable.
  
  
  *************************
  Routing Time Step Summary
  *************************
  Minimum Time Step           :     1.00 sec
  Average Time Step           :     1.00 sec
  Maximum Time Step           :     1.00 sec
  Percent in Steady State     :     0.00
  Average Iterations per Step :     2.00
  Percent Not Converging      :     0.00
  
  
  ***************************
  Subcatchment Runoff Summary
  ***************************
  
  --------------------------------------------------------------------------------------------------------
                            Total      Total      Total      Total      Total       Total     Peak  Runoff
                           Precip      Runon       Evap      Infil     Runoff      Runoff   Runoff   Coeff
  Subcatchment                 mm         mm         mm         mm         mm    10^6 ltr      LPS
  --------------------------------------------------------------------------------------------------------
  C_PMI92748                 0.00       0.00       0.00       0.00       0.00        0.00     0.00   0.000
  C_PMP93182                 0.00       0.00       0.00       0.00       0.00        0.00     0.00   0.000
  C_PMP92904                 0.00       0.00       0.00       0.00       0.00        0.00     0.00   0.000
  C_PMP92903                 0.00       0.00       0.00       0.00       0.00        0.00     0.00   0.000
  C_PMI92766                 0.00       0.00       0.00       0.00       0.00        0.00     0.00   0.000
  C_PMI92813                 0.00       0.00       0.00       0.00       0.00        0.00     0.00   0.000
  C_PMP93199                 0.00       0.00       0.00       0.00       0.00        0.00     0.00   0.000
  C_PMP92936                 0.00       0.00       0.00       0.00       0.00        0.00     0.00   0.000
  C_PMP93043                 0.00       0.00       0.00       0.00       0.00        0.00     0.00   0.000
  C_PMI92774                 0.00       0.00       0.00       0.00       0.00        0.00     0.00   0.000
  C_PMP93042                 0.00       0.00       0.00       0.00       0.00        0.00     0.00   0.000
  C_PMI92787                 0.00       0.00       0.00       0.00       0.00        0.00     0.00   0.000
  C_PMP93041                 0.00       0.00       0.00       0.00       0.00        0.00     0.00   0.000
  C_PMP92907                 0.00       0.00       0.00       0.00       0.00        0.00     0.00   0.000
  C_PMP92902                 0.00       0.00       0.00       0.00       0.00        0.00     0.00   0.000
  C_PMI92775                 0.00       0.00       0.00       0.00       0.00        0.00     0.00   0.000
  C_PMI92764                 0.00       0.00       0.00       0.00       0.00        0.00     0.00   0.000
  C_PMP92827                 0.00       0.00       0.00       0.00       0.00        0.00     0.00   0.000
  C_PMP92935                 0.00       0.00       0.00       0.00       0.00        0.00     0.00   0.000
  C_PMP92828                 0.00       0.00       0.00       0.00       0.00        0.00     0.00   0.000
  C_PMP92901                 0.00       0.00       0.00       0.00       0.00        0.00     0.00   0.000
  C_PMP92965                 0.00       0.00       0.00       0.00       0.00        0.00     0.00   0.000
  C_PMI92722                 0.00       0.00       0.00       0.00       0.00        0.00     0.00   0.000
  C_PMP93107                 0.00       0.00       0.00       0.00       0.00        0.00     0.00   0.000
  C_PMP92934                 0.00       0.00       0.00       0.00       0.00        0.00     0.00   0.000
  C_PMP92964                 0.00       0.00       0.00       0.00       0.00        0.00     0.00   0.000
  C_PMP93077                 0.00       0.00       0.00       0.00       0.00        0.00     0.00   0.000
  C_PMP92900                 0.00       0.00       0.00       0.00       0.00        0.00     0.00   0.000
  C_PMP93040                 0.00       0.00       0.00       0.00       0.00        0.00     0.00   0.000
  C_PMP93198                 0.00       0.00       0.00       0.00       0.00        0.00     0.00   0.000
  C_PMI92747                 0.00       0.00       0.00       0.00       0.00        0.00     0.00   0.000
  C_PMP93004                 0.00       0.00       0.00       0.00       0.00        0.00     0.00   0.000
  C_PMP93039                 0.00       0.00       0.00       0.00       0.00        0.00     0.00   0.000
  C_PMP92933                 0.00       0.00       0.00       0.00       0.00        0.00     0.00   0.000
  C_PMI92735                 0.00       0.00       0.00       0.00       0.00        0.00     0.00   0.000
  C_PMP92864                 0.00       0.00       0.00       0.00       0.00        0.00     0.00   0.000
  C_PMP106155                0.00       0.00       0.00       0.00       0.00        0.00     0.00   0.000
  C_PMP93003                 0.00       0.00       0.00       0.00       0.00        0.00     0.00   0.000
  C_PMP93002                 0.00       0.00       0.00       0.00       0.00        0.00     0.00   0.000
  C_PMP106385                0.00       0.00       0.00       0.00       0.00        0.00     0.00   0.000
  C_PMP93205                 0.00       0.00       0.00       0.00       0.00        0.00     0.00   0.000
  C_PMP93000                 0.00       0.00       0.00       0.00       0.00        0.00     0.00   0.000
  C_PMP106386                0.00       0.00       0.00       0.00       0.00        0.00     0.00   0.000
  C_PMCI106387               0.00       0.00       0.00       0.00       0.00        0.00     0.00   0.000
  C_PMI92786                 0.00       0.00       0.00       0.00       0.00        0.00     0.00   0.000
  C_PMP106384                0.00       0.00       0.00       0.00       0.00        0.00     0.00   0.000
  C_PMP92863                 0.00       0.00       0.00       0.00       0.00        0.00     0.00   0.000
  C_PMP93075                 0.00       0.00       0.00       0.00       0.00        0.00     0.00   0.000
  C_PMP92999                 0.00       0.00       0.00       0.00       0.00        0.00     0.00   0.000
  C_PMI92792                 0.00       0.00       0.00       0.00       0.00        0.00     0.00   0.000
  C_PMP93036                 0.00       0.00       0.00       0.00       0.00        0.00     0.00   0.000
  C_PMP92896                 0.00       0.00       0.00       0.00       0.00        0.00     0.00   0.000
  C_PMI92734                 0.00       0.00       0.00       0.00       0.00        0.00     0.00   0.000
  C_PMI92751                 0.00       0.00       0.00       0.00       0.00        0.00     0.00   0.000
  C_PMP92996                 0.00       0.00       0.00       0.00       0.00        0.00     0.00   0.000
  C_PMP92865                 0.00       0.00       0.00       0.00       0.00        0.00     0.00   0.000
  C_PMP92928                 0.00       0.00       0.00       0.00       0.00        0.00     0.00   0.000
  C_PMP92876                 0.00       0.00       0.00       0.00       0.00        0.00     0.00   0.000
  C_PMP93101                 0.00       0.00       0.00       0.00       0.00        0.00     0.00   0.000
  C_PMI92736                 0.00       0.00       0.00       0.00       0.00        0.00     0.00   0.000
  C_PMP93099                 0.00       0.00       0.00       0.00       0.00        0.00     0.00   0.000
  C_PMP93073                 0.00       0.00       0.00       0.00       0.00        0.00     0.00   0.000
  C_PMI92754                 0.00       0.00       0.00       0.00       0.00        0.00     0.00   0.000
  C_PMP93108                 0.00       0.00       0.00       0.00       0.00        0.00     0.00   0.000
  C_PMP92955                 0.00       0.00       0.00       0.00       0.00        0.00     0.00   0.000
  C_PMP92926                 0.00       0.00       0.00       0.00       0.00        0.00     0.00   0.000
  C_PMP92895                 0.00       0.00       0.00       0.00       0.00        0.00     0.00   0.000
  C_PMP93031                 0.00       0.00       0.00       0.00       0.00        0.00     0.00   0.000
  C_PMI92782                 0.00       0.00       0.00       0.00       0.00        0.00     0.00   0.000
  C_PMP92925                 0.00       0.00       0.00       0.00       0.00        0.00     0.00   0.000
  C_PMP92893                 0.00       0.00       0.00       0.00       0.00        0.00     0.00   0.000
  C_PMP93095                 0.00       0.00       0.00       0.00       0.00        0.00     0.00   0.000
  C_PMP92991                 0.00       0.00       0.00       0.00       0.00        0.00     0.00   0.000
  C_PMP92990                 0.00       0.00       0.00       0.00       0.00        0.00     0.00   0.000
  C_PMP93029                 0.00       0.00       0.00       0.00       0.00        0.00     0.00   0.000
  C_PMP92988                 0.00       0.00       0.00       0.00       0.00        0.00     0.00   0.000
  C_PMP92855                 0.00       0.00       0.00       0.00       0.00        0.00     0.00   0.000
  C_PMP92891                 0.00       0.00       0.00       0.00       0.00        0.00     0.00   0.000
  C_PMP93025                 0.00       0.00       0.00       0.00       0.00        0.00     0.00   0.000
  C_PMP93024                 0.00       0.00       0.00       0.00       0.00        0.00     0.00   0.000
  C_CRE06                    0.00       0.00       0.00       0.00       0.00        0.00     0.00   0.000
  C_CRE09                    0.00       0.00       0.00       0.00       0.00        0.00     0.00   0.000
  
  
  ******************
  Node Depth Summary
  ******************
  
  ---------------------------------------------------------------------------------
                                 Average  Maximum  Maximum  Time of Max    Reported
                                   Depth    Depth      HGL   Occurrence   Max Depth
  Node                 Type       Meters   Meters   Meters  days hr:min      Meters
  ---------------------------------------------------------------------------------
  PMI92748             JUNCTION     0.00     0.00  2571.98     0  00:00        0.00
  PMP93182             JUNCTION     0.01     0.01  2587.65     0  00:03        0.00
  PMP92904             JUNCTION     0.00     0.00  2571.43     0  00:00        0.00
  PMP92903             JUNCTION     0.00     0.00  2571.38     0  00:00        0.00
  PMI92766             JUNCTION     0.00     0.00  2569.21     0  00:00        0.00
  PMI92813             JUNCTION     0.02     0.02  2585.95     0  00:01        0.01
  PMP93199             JUNCTION     0.01     0.01  2585.49     0  00:02        0.00
  PMP92936             JUNCTION     0.00     0.00  2570.82     0  00:00        0.00
  PMP93043             JUNCTION     0.01     0.01  2583.35     0  00:02        0.00
  PMI92774             JUNCTION     0.00     0.00  2575.59     0  00:00        0.00
  PMP93042             JUNCTION     0.01     0.01  2580.24     0  00:03        0.00
  PMI92787             JUNCTION     0.00     0.00  2575.80     0  00:00        0.00
  PMP93041             JUNCTION     0.00     0.00  2568.38     0  00:00        0.00
  PMP92907             JUNCTION     0.00     0.00  2575.35     0  00:00        0.00
  PMP92902             JUNCTION     0.01     0.02  2576.14     0  00:05        0.00
  PMI92775             JUNCTION     0.00     0.00  2572.07     0  00:00        0.00
  PMI92764             JUNCTION     0.00     0.00  2575.26     0  00:00        0.00
  PMP92827             JUNCTION     0.00     0.00  2565.41     0  00:00        0.00
  PMP92935             JUNCTION     0.00     0.00  2571.99     0  00:00        0.00
  PMP92828             JUNCTION     0.01     0.01  2567.76     0  02:43        0.00
  PMP92901             JUNCTION     0.01     0.01  2568.15     0  01:24        0.00
  PMP92965             JUNCTION     0.00     0.00  2571.56     0  00:00        0.00
  PMI92722             JUNCTION     0.00     0.00  2578.57     0  00:00        0.00
  PMP93107             JUNCTION     0.02     0.02  2574.55     0  00:12        0.01
  PMP92934             JUNCTION     0.00     0.00  2570.06     0  00:00        0.00
  PMP92964             JUNCTION     0.00     0.00  2568.39     0  00:00        0.00
  PMP93077             JUNCTION     0.00     0.00  2567.87     0  00:00        0.00
  PMP92900             JUNCTION     0.01     0.01  2565.15     0  01:34        0.00
  PMP93040             JUNCTION     0.00     0.00  2563.97     0  00:00        0.00
  PMP93198             JUNCTION     0.02     0.02  2564.61     0  01:25        0.01
  PMI92747             JUNCTION     0.00     0.00  2577.05     0  00:00        0.00
  PMP93004             JUNCTION     0.01     0.01  2573.26     0  00:12        0.00
  PMP93039             JUNCTION     0.01     0.02  2563.61     0  00:52        0.00
  PMP92933             JUNCTION     0.02     0.02  2567.99     0  00:38        0.00
  PMI92735             JUNCTION     0.00     0.00  2563.67     0  00:00        0.00
  PMP92864             JUNCTION     0.01     0.01  2561.88     0  01:27        0.00
  PMP106155            JUNCTION     0.00     0.00  2559.00     0  00:00        0.00
  PMP93003             JUNCTION     0.01     0.01  2565.85     0  00:45        0.00
  PMP93002             JUNCTION     0.01     0.01  2558.61     0  02:58        0.00
  PMP106385            JUNCTION     0.00     0.00  2558.65     0  00:00        0.00
  PMP93205             JUNCTION     0.01     0.02  2557.17     0  01:29        0.00
  PMP93000             JUNCTION     0.01     0.02  2563.09     0  00:44        0.00
  PMP106386            JUNCTION     0.00     0.00  2558.60     0  00:00        0.00
  PMCI106387           JUNCTION     0.00     0.00  2558.41     0  00:00        0.00
  PMI92786             JUNCTION     0.00     0.00  2560.66     0  00:00        0.00
  PMP106384            JUNCTION     0.01     0.01  2556.51     0  02:25        0.00
  PMP92863             JUNCTION     0.01     0.01  2561.42     0  00:52        0.00
  PMP93075             JUNCTION     0.01     0.01  2555.30     0  02:26        0.00
  PMP92999             JUNCTION     0.01     0.01  2554.67     0  02:17        0.00
  PMI92792             JUNCTION     0.00     0.00  2556.61     0  00:00        0.00
  PMP93036             JUNCTION     0.01     0.01  2558.58     0  01:04        0.00
  PMP92896             JUNCTION     0.01     0.01  2553.40     0  02:44        0.00
  PMI92734             JUNCTION     0.00     0.00  2555.97     0  00:00        0.00
  PMI92751             JUNCTION     0.00     0.00  2554.36     0  00:00        0.00
  PMP92996             JUNCTION     0.01     0.01  2556.78     0  01:07        0.00
  PMP92865             JUNCTION     0.00     0.00  2556.21     0  00:00        0.00
  PMP92928             JUNCTION     0.02     0.02  2552.54     0  02:23        0.01
  PMP92876             JUNCTION     0.01     0.02  2556.16     0  00:37        0.01
  PMP93101             JUNCTION     0.03     0.04  2552.46     0  01:30        0.01
  PMI92736             JUNCTION     0.00     0.00  2552.88     0  00:00        0.00
  PMP93099             JUNCTION     0.01     0.02  2555.57     0  00:56        0.01
  PMP93073             JUNCTION     0.01     0.01  2552.39     0  00:55        0.00
  PMI92754             JUNCTION     0.00     0.00  2555.04     0  00:00        0.00
  PMP93108             JUNCTION     0.00     0.00  2552.38     0  00:00        0.00
  PMP92955             JUNCTION     0.01     0.01  2554.99     0  01:08        0.00
  PMP92926             JUNCTION     0.01     0.01  2551.26     0  01:38        0.00
  PMP92895             JUNCTION     0.01     0.01  2551.67     0  01:34        0.00
  PMP93031             JUNCTION     0.01     0.02  2553.87     0  02:39        0.00
  PMI92782             JUNCTION     0.00     0.00  2553.31     0  00:00        0.00
  PMP92925             JUNCTION     0.02     0.02  2548.99     0  01:45        0.01
  PMP92893             JUNCTION     0.02     0.02  2553.32     0  01:03        0.01
  PMP93095             JUNCTION     0.02     0.03  2548.67     0  03:00        0.01
  PMP92991             JUNCTION     0.01     0.02  2552.10     0  01:32        0.01
  PMP92990             JUNCTION     0.01     0.02  2553.04     0  01:19        0.01
  PMP93029             JUNCTION     0.03     0.05  2548.57     0  01:55        0.01
  PMP92988             JUNCTION     0.01     0.01  2552.63     0  01:25        0.00
  PMP92855             JUNCTION     0.01     0.02  2552.70     0  01:22        0.01
  PMP92891             JUNCTION     0.02     0.03  2548.53     0  02:11        0.01
  PMP93025             JUNCTION     0.02     0.04  2548.48     0  02:14        0.01
  PMP93024             JUNCTION     0.02     0.03  2548.46     0  02:16        0.01
  CRE06                JUNCTION     0.00     0.00  2569.80     0  01:26        0.00
  CRE09                JUNCTION     0.01     0.01  2587.56     0  02:59        0.00
  PMP92951             OUTFALL      0.00     0.01  2548.38     0  02:16        0.00
  
  
  *******************
  Node Inflow Summary
  *******************
  
  -------------------------------------------------------------------------------------------------
                                  Maximum  Maximum                  Lateral       Total        Flow
                                  Lateral    Total  Time of Max      Inflow      Inflow     Balance
                                   Inflow   Inflow   Occurrence      Volume      Volume       Error
  Node                 Type           LPS      LPS  days hr:min    10^6 ltr    10^6 ltr     Percent
  -------------------------------------------------------------------------------------------------
  PMI92748             JUNCTION      0.00     0.00     0  00:00           0           0       0.000 ltr
  PMP93182             JUNCTION      1.00     1.00     0  00:00      0.0108      0.0108       0.767
  PMP92904             JUNCTION      0.00     0.00     0  00:00           0           0       0.000 ltr
  PMP92903             JUNCTION      0.00     0.00     0  00:00           0           0       0.000 ltr
  PMI92766             JUNCTION      0.00     0.00     0  00:00           0           0       0.000 ltr
  PMI92813             JUNCTION      1.00     1.00     0  00:00      0.0108      0.0108       0.383
  PMP93199             JUNCTION      0.00     1.02     0  00:02           0      0.0108       0.406
  PMP92936             JUNCTION      0.00     0.00     0  00:00           0           0       0.000 ltr
  PMP93043             JUNCTION      0.00     1.02     0  00:02           0      0.0107       0.324
  PMI92774             JUNCTION      0.00     0.00     0  00:00           0           0       0.000 ltr
  PMP93042             JUNCTION      0.00     1.03     0  00:03           0      0.0107       0.374
  PMI92787             JUNCTION      0.00     0.00     0  00:00           0           0       0.000 ltr
  PMP93041             JUNCTION      0.00     0.00     0  00:00           0           0       0.000 ltr
  PMP92907             JUNCTION      0.00     0.00     0  00:00           0           0       0.000 ltr
  PMP92902             JUNCTION      0.00     1.05     0  00:03           0      0.0106       0.684
  PMI92775             JUNCTION      0.00     0.00     0  00:00           0           0       0.000 ltr
  PMI92764             JUNCTION      0.00     0.00     0  00:00           0           0       0.000 ltr
  PMP92827             JUNCTION      0.00     0.00     0  00:00           0           0       0.000 ltr
  PMP92935             JUNCTION      0.00     0.00     0  00:00           0           0       0.000 ltr
  PMP92828             JUNCTION      0.00     0.67     0  01:14           0     0.00691       0.629
  PMP92901             JUNCTION      0.00     0.33     0  01:14           0     0.00345       1.280
  PMP92965             JUNCTION      0.00     0.00     0  00:00           0           0       0.000 ltr
  PMI92722             JUNCTION      0.00     0.00     0  00:00           0           0       0.000 ltr
  PMP93107             JUNCTION      0.00     1.05     0  00:06           0      0.0106       1.549
  PMP92934             JUNCTION      0.00     0.00     0  00:00           0           0       0.000 ltr
  PMP92964             JUNCTION      0.00     0.00     0  00:00           0           0       0.000 ltr
  PMP93077             JUNCTION      0.00     0.00     0  00:00           0           0       0.000 ltr
  PMP92900             JUNCTION      0.00     0.67     0  02:19           0     0.00687       0.407
  PMP93040             JUNCTION      0.00     0.00     0  00:00           0           0       0.000 ltr
  PMP93198             JUNCTION      0.00     1.00     0  01:19           0      0.0102       1.936
  PMI92747             JUNCTION      0.00     0.00     0  00:00           0           0       0.000 ltr
  PMP93004             JUNCTION      0.00     1.00     0  00:12           0      0.0104       1.234
  PMP93039             JUNCTION      0.00     1.00     0  01:26           0      0.0101       1.817
  PMP92933             JUNCTION      0.00     1.00     0  00:12           0      0.0103       2.444
  PMI92735             JUNCTION      0.00     0.00     0  00:00           0           0       0.000 ltr
  PMP92864             JUNCTION      0.00     1.00     0  01:21           0     0.00987       1.862
  PMP106155            JUNCTION      0.00     0.00     0  00:00           0           0       0.000 ltr
  PMP93003             JUNCTION      0.00     1.00     0  00:40           0        0.01       1.319
  PMP93002             JUNCTION      0.00     1.00     0  01:43           0     0.00969       0.989
  PMP106385            JUNCTION      0.00     0.00     0  00:00           0           0       0.000 ltr
  PMP93205             JUNCTION      0.00     1.00     0  01:28           0      0.0096       1.072
  PMP93000             JUNCTION      0.00     1.00     0  00:45           0      0.0099       2.358
  PMP106386            JUNCTION      0.00     0.00     0  00:00           0           0       0.000 ltr
  PMCI106387           JUNCTION      0.00     0.00     0  00:00           0           0       0.000 ltr
  PMI92786             JUNCTION      0.00     0.00     0  00:00           0           0       0.000 ltr
  PMP106384            JUNCTION      0.00     1.00     0  02:35           0      0.0095       1.319
  PMP92863             JUNCTION      0.00     1.00     0  00:47           0     0.00968       1.587
  PMP93075             JUNCTION      0.00     1.00     0  02:58           0     0.00937       0.818
  PMP92999             JUNCTION      0.00     1.00     0  01:37           0      0.0093       1.089
  PMI92792             JUNCTION      0.00     0.00     0  00:00           0           0       0.000 ltr
  PMP93036             JUNCTION      0.00     1.00     0  00:52           0     0.00952       2.251
  PMP92896             JUNCTION      0.00     1.00     0  01:39           0      0.0092       1.883
  PMI92734             JUNCTION      0.00     0.00     0  00:00           0           0       0.000 ltr
  PMI92751             JUNCTION      0.00     0.00     0  00:00           0           0       0.000 ltr
  PMP92996             JUNCTION      0.00     1.00     0  01:05           0     0.00932       0.861
  PMP92865             JUNCTION      0.00     0.00     0  00:00           0           0       0.000 ltr
  PMP92928             JUNCTION      0.00     1.00     0  01:47           0     0.00903       1.659
  PMP92876             JUNCTION      0.00     1.00     0  01:07           0     0.00924       1.386
  PMP93101             JUNCTION      0.00     1.00     0  01:50           0     0.00888       4.743
  PMI92736             JUNCTION      0.00     0.00     0  00:00           0           0       0.000 ltr
  PMP93099             JUNCTION      0.00     1.00     0  01:11           0     0.00911       3.059
  PMP93073             JUNCTION      0.00     1.00     0  01:34           0     0.00848       2.100
  PMI92754             JUNCTION      0.00     0.00     0  00:00           0           0       0.000 ltr
  PMP93108             JUNCTION      0.00     0.00     0  00:00           0           0       0.000 ltr
  PMP92955             JUNCTION      0.00     1.00     0  01:00           0     0.00884       2.074
  PMP92926             JUNCTION      0.00     2.00     0  01:35           0      0.0157       1.420
  PMP92895             JUNCTION      0.00     1.00     0  01:32           0     0.00741       0.839
  PMP93031             JUNCTION      0.00     1.00     0  01:08           0     0.00866       3.181
  PMI92782             JUNCTION      0.00     0.00     0  00:00           0           0       0.000 ltr
  PMP92925             JUNCTION      0.00     2.00     0  01:38           0      0.0154       2.448
  PMP92893             JUNCTION      0.00     1.00     0  02:25           0     0.00839       3.108
  PMP93095             JUNCTION      0.00     2.00     0  01:45           0      0.0151       4.861
  PMP92991             JUNCTION      0.00     1.00     0  01:25           0     0.00762       2.824
  PMP92990             JUNCTION      0.00     1.00     0  01:10           0     0.00814       3.733
  PMP93029             JUNCTION      0.00     2.00     0  02:59           0      0.0144       9.631
  PMP92988             JUNCTION      0.00     1.00     0  01:23           0     0.00772       1.298
  PMP92855             JUNCTION      0.00     1.00     0  01:20           0     0.00785       1.627
  PMP92891             JUNCTION      0.00     2.00     0  02:02           0      0.0131       5.203
  PMP93025             JUNCTION      0.00     2.00     0  02:11           0      0.0125       3.383
  PMP93024             JUNCTION      0.00     2.00     0  02:15           0      0.0121       1.532
  CRE06                JUNCTION      0.00     1.00     0  01:14           0      0.0104       0.459
  CRE09                JUNCTION      0.00     1.06     0  00:03           0      0.0107       2.945
  PMP92951             OUTFALL       0.00     2.00     0  02:16           0      0.0119       0.000
  
  
  **********************
  Node Surcharge Summary
  **********************
  
  No nodes were surcharged.
  
  
  *********************
  Node Flooding Summary
  *********************
  
  No nodes were flooded.
  
  
  ***********************
  Outfall Loading Summary
  ***********************
  
  -----------------------------------------------------------
                         Flow       Avg       Max       Total
                         Freq      Flow      Flow      Volume
  Outfall Node           Pcnt       LPS       LPS    10^6 ltr
  -----------------------------------------------------------
  PMP92951              71.59      1.53      2.00       0.012
  -----------------------------------------------------------
  System                71.59      1.53      2.00       0.012
  
  
  ********************
  Link Flow Summary
  ********************
  
  -----------------------------------------------------------------------------
                                 Maximum  Time of Max   Maximum    Max/    Max/
                                  |Flow|   Occurrence   |Veloc|    Full    Full
  Link                 Type          LPS  days hr:min     m/sec    Flow   Depth
  -----------------------------------------------------------------------------
  PLT86007             CONDUIT      0.00     0  00:00      0.00    0.00    0.00
  PLT85674             CONDUIT      0.00     0  00:00      0.00    0.00    0.00
  PLT85675             CONDUIT      0.00     0  00:00      0.00    0.00    0.01
  PLT85990             CONDUIT      1.00     0  01:28      0.55    0.00    0.02
  PLT85992             CONDUIT      1.00     0  02:35      0.49    0.00    0.02
  PLT85743             CONDUIT      0.00     0  00:00      0.00    0.00    0.02
  PLT85745             CONDUIT      0.00     0  00:00      0.00    0.00    0.00
  PLT85676             CONDUIT      0.00     0  00:00      0.00    0.00    0.00
  PLT85677             CONDUIT      0.00     0  00:00      0.00    0.00    0.00
  PLT85678             CONDUIT      0.00     0  00:00      0.00    0.00    0.00
  PLT85679             CONDUIT      0.00     0  00:00      0.00    0.00    0.00
  PLT85738             CONDUIT      1.00     0  01:08      0.44    0.00    0.02
  PLT85739             CONDUIT      0.67     0  01:19      0.61    0.00    0.02
  PLT85740             CONDUIT      1.00     0  01:26      0.48    0.00    0.03
  PLT85742             CONDUIT      0.00     0  00:00      0.00    0.00    0.02
  PLT85879             CONDUIT      1.00     0  00:52      0.67    0.00    0.02
  PLT85880             CONDUIT      0.33     0  01:14      0.69    0.00    0.01
  PLT85881             CONDUIT      0.33     0  01:18      0.27    0.00    0.02
  PLT85736             CONDUIT      0.00     0  00:00      0.00    0.00    0.03
  PLT85669             CONDUIT      1.00     0  02:58      0.54    0.00    0.02
  PLT85670             CONDUIT      1.00     0  01:37      0.54    0.00    0.02
  PLT85671             CONDUIT      1.00     0  01:39      0.49    0.00    0.02
  PLT85672             CONDUIT      1.00     0  01:47      0.38    0.00    0.02
  PLT85673             CONDUIT      1.00     0  01:50      0.22    0.00    0.03
  PLT85636             CONDUIT      1.00     0  00:45      0.70    0.00    0.03
  PLT85637             CONDUIT      0.00     0  00:00      0.00    0.00    0.00
  PLT85638             CONDUIT      0.00     0  00:00      0.00    0.00    0.00
  PLT85865             CONDUIT      0.00     0  00:00      0.00    0.00    0.02
  PLT85866             CONDUIT      1.00     0  01:05      0.60    0.00    0.02
  PLT85639             CONDUIT      0.00     0  00:00      0.00    0.00    0.00
  PLT85640             CONDUIT      0.00     0  00:00      0.00    0.00    0.02
  PLT85641             CONDUIT      1.00     0  00:12      0.94    0.00    0.04
  PLT85642             CONDUIT      1.00     0  00:40      0.68    0.00    0.04
  PLT85757             CONDUIT      0.00     0  00:00      0.00    0.00    0.00
  PLT85758             CONDUIT      1.00     0  01:07      0.51    0.00    0.02
  PLT85776             CONDUIT      0.00     0  00:00      0.00    0.00    0.00
  PLT85999             CONDUIT      1.02     0  00:02      0.79    0.01    0.05
  PLT86003             CONDUIT      1.02     0  00:02      1.13    0.00    0.04
  PLT85809             CONDUIT      0.67     0  01:14      0.75    0.00    0.01
  PLT85810             CONDUIT      0.67     0  02:19      0.65    0.00    0.01
  PLT85781             CONDUIT      1.05     0  00:03      1.27    0.00    0.05
  PLT85782             CONDUIT      1.03     0  00:03      1.31    0.00    0.04
  PLT85784             CONDUIT      0.00     0  00:00      0.00    0.00    0.00
  PLT85785             CONDUIT      0.00     0  00:00      0.00    0.00    0.00
  PLT85786             CONDUIT      1.05     0  00:06      0.93    0.01    0.06
  PLT85619             CONDUIT      0.00     0  00:00      0.00    0.00    0.00
  PLT85620             CONDUIT      0.00     0  00:00      0.00    0.00    0.02
  PLT85621             CONDUIT      0.00     0  00:00      0.00    0.00    0.01
  PLT85622             CONDUIT      0.00     0  00:00      0.00    0.00    0.00
  PLT85791             CONDUIT      1.00     0  01:11      0.41    0.00    0.02
  PLT85800             CONDUIT      0.00     0  00:00      0.00    0.00    0.02
  PLT85819             CONDUIT      0.00     0  00:00      0.00    0.00    0.02
  PLT85820             CONDUIT      0.00     0  00:00      0.00    0.00    0.02
  PLT85821             CONDUIT      1.00     0  00:12      0.67    0.00    0.04
  PLT85822             CONDUIT      0.00     0  00:00      0.00    0.00    0.03
  PLT85905             CONDUIT      1.00     0  01:21      0.63    0.00    0.02
  PLT85916             CONDUIT      1.00     0  00:47      0.57    0.00    0.02
  PLT85917             CONDUIT      0.00     0  00:00      0.00    0.00    0.01
  PLT100880            CONDUIT      0.00     0  00:00      0.00    0.00    0.00
  PLT100881            CONDUIT      0.00     0  00:00      0.00    0.00    0.00
  PLT100882            CONDUIT      0.00     0  00:00      0.00    0.00    0.00
  PLT100883            CONDUIT      0.00     0  00:00      0.00    0.00    0.02
  PLT85737             CONDUIT      1.00     0  01:00      0.40    0.00    0.02
  PLT85719             CONDUIT      0.00     0  00:00      0.00    0.00    0.01
  PLT85720             CONDUIT      1.00     0  01:43      0.67    0.00    0.02
  PLT85747             CONDUIT      1.01     0  01:01      0.50    0.00    0.01
  PLT85941             CONDUIT      2.00     0  02:02      0.16    0.00    0.03
  PLT85922             CONDUIT      2.00     0  02:16      0.46    0.00    0.01
  PLT85749             CONDUIT      1.00     0  01:25      0.33    0.00    0.01
  PLT85703             CONDUIT      1.00     0  01:20      0.31    0.00    0.01
  PLV86064             CONDUIT      1.00     0  01:14      1.24    0.00    0.02
  PLT85748             CONDUIT      1.00     0  01:23      0.34    0.00    0.01
  PLT85771             CONDUIT      2.00     0  01:38      0.51    0.00    0.01
  PLT85768             CONDUIT      1.00     0  01:34      0.47    0.00    0.01
  PLB86093             CONDUIT      1.06     0  00:03      0.20    0.00    0.01
  PLT85741             CONDUIT      1.00     0  02:25      0.32    0.00    0.02
  PLT85750             CONDUIT      1.00     0  01:32      0.40    0.00    0.01
  PLT85744             CONDUIT      1.00     0  01:10      0.29    0.00    0.02
  PLT85770             CONDUIT      2.00     0  01:45      0.29    0.00    0.02
  PLT85769             CONDUIT      2.00     0  02:59      0.18    0.00    0.03
  PLT85940             CONDUIT      2.00     0  02:11      0.20    0.00    0.02
  PLT85700             CONDUIT      1.00     0  01:34      0.18    0.00    0.03
  PLT85923             CONDUIT      2.00     0  02:15      0.21    0.00    0.02
  
  
  ***************************
  Flow Classification Summary
  ***************************
  
  -------------------------------------------------------------------------------------
                      Adjusted    ---------- Fraction of Time in Flow Class ---------- 
                       /Actual         Up    Down  Sub   Sup   Up    Down  Norm  Inlet 
  Conduit               Length    Dry  Dry   Dry   Crit  Crit  Crit  Crit  Ltd   Ctrl  
  -------------------------------------------------------------------------------------
  PLT86007                1.00   1.00  0.00  0.00  0.00  0.00  0.00  0.00  0.00  0.00
  PLT85674                1.00   1.00  0.00  0.00  0.00  0.00  0.00  0.00  0.00  0.00
  PLT85675                1.00   0.01  0.99  0.00  0.00  0.00  0.00  0.00  0.00  0.00
  PLT85990                1.00   0.03  0.00  0.00  0.00  0.97  0.00  0.00  0.95  0.00
  PLT85992                1.00   0.03  0.00  0.00  0.02  0.94  0.00  0.00  0.00  0.00
  PLT85743                1.00   0.10  0.90  0.00  0.00  0.00  0.00  0.00  0.00  0.00
  PLT85745                1.00   1.00  0.00  0.00  0.00  0.00  0.00  0.00  0.00  0.00
  PLT85676                1.00   1.00  0.00  0.00  0.00  0.00  0.00  0.00  0.00  0.00
  PLT85677                1.00   1.00  0.00  0.00  0.00  0.00  0.00  0.00  0.00  0.00
  PLT85678                1.00   1.00  0.00  0.00  0.00  0.00  0.00  0.00  0.00  0.00
  PLT85679                1.00   1.00  0.00  0.00  0.00  0.00  0.00  0.00  0.00  0.00
  PLT85738                1.00   0.08  0.00  0.00  0.06  0.86  0.00  0.00  0.75  0.00
  PLT85739                1.00   0.01  0.00  0.00  0.00  0.99  0.00  0.00  0.98  0.00
  PLT85740                1.00   0.01  0.00  0.00  0.01  0.98  0.00  0.00  0.00  0.00
  PLT85742                1.00   0.09  0.91  0.00  0.00  0.00  0.00  0.00  0.00  0.00
  PLT85879                1.00   0.04  0.00  0.00  0.01  0.95  0.00  0.00  0.84  0.00
  PLT85880                1.00   0.01  0.00  0.00  0.00  0.99  0.00  0.00  0.96  0.00
  PLT85881                1.00   0.01  0.00  0.00  0.94  0.06  0.00  0.00  0.98  0.00
  PLT85736                1.00   0.07  0.93  0.00  0.00  0.00  0.00  0.00  0.00  0.00
  PLT85669                1.00   0.04  0.00  0.00  0.00  0.96  0.00  0.00  0.00  0.00
  PLT85670                1.00   0.05  0.00  0.00  0.00  0.95  0.00  0.00  0.87  0.00
  PLT85671                1.00   0.05  0.00  0.00  0.02  0.93  0.00  0.00  0.80  0.00
  PLT85672                1.00   0.06  0.00  0.00  0.07  0.88  0.00  0.00  0.83  0.00
  PLT85673                1.00   0.06  0.00  0.00  0.94  0.00  0.00  0.00  0.89  0.00
  PLT85636                1.00   0.03  0.00  0.00  0.01  0.96  0.00  0.00  0.89  0.00
  PLT85637                1.00   1.00  0.00  0.00  0.00  0.00  0.00  0.00  0.00  0.00
  PLT85638                1.00   1.00  0.00  0.00  0.00  0.00  0.00  0.00  0.00  0.00
  PLT85865                1.00   0.05  0.95  0.00  0.00  0.00  0.00  0.00  0.00  0.00
  PLT85866                1.00   0.05  0.00  0.00  0.01  0.94  0.00  0.00  0.00  0.00
  PLT85639                1.00   1.00  0.00  0.00  0.00  0.00  0.00  0.00  0.00  0.00
  PLT85640                1.00   0.04  0.96  0.00  0.00  0.00  0.00  0.00  0.00  0.00
  PLT85641                1.00   0.02  0.00  0.00  0.00  0.98  0.00  0.00  0.93  0.00
  PLT85642                1.00   0.02  0.00  0.00  0.01  0.97  0.00  0.00  0.00  0.00
  PLT85757                1.00   1.00  0.00  0.00  0.00  0.00  0.00  0.00  0.00  0.00
  PLT85758                1.00   0.06  0.00  0.00  0.01  0.94  0.00  0.00  0.93  0.00
  PLT85776                1.00   1.00  0.00  0.00  0.00  0.00  0.00  0.00  0.00  0.00
  PLT85999                1.00   0.00  0.00  0.00  0.00  1.00  0.00  0.00  0.00  0.00
  PLT86003                1.00   0.00  0.00  0.00  0.00  1.00  0.00  0.00  0.00  0.00
  PLT85809                1.00   0.01  0.00  0.00  0.00  0.99  0.00  0.00  0.99  0.00
  PLT85810                1.00   0.01  0.00  0.00  0.00  0.99  0.00  0.00  0.00  0.00
  PLT85781                1.00   0.00  0.00  0.00  0.00  0.99  0.00  0.00  0.98  0.00
  PLT85782                1.00   0.00  0.00  0.00  0.00  1.00  0.00  0.00  0.98  0.00
  PLT85784                1.00   1.00  0.00  0.00  0.00  0.00  0.00  0.00  0.00  0.00
  PLT85785                1.00   1.00  0.00  0.00  0.00  0.00  0.00  0.00  0.00  0.00
  PLT85786                1.00   0.01  0.00  0.00  0.00  0.99  0.00  0.00  0.96  0.00
  PLT85619                1.00   1.00  0.00  0.00  0.00  0.00  0.00  0.00  0.00  0.00
  PLT85620                1.00   0.06  0.94  0.00  0.00  0.00  0.00  0.00  0.00  0.00
  PLT85621                1.00   0.09  0.91  0.00  0.00  0.00  0.00  0.00  0.00  0.00
  PLT85622                1.00   1.00  0.00  0.00  0.00  0.00  0.00  0.00  0.00  0.00
  PLT85791                1.00   0.06  0.00  0.00  0.05  0.89  0.00  0.00  0.77  0.00
  PLT85800                1.00   0.06  0.94  0.00  0.00  0.00  0.00  0.00  0.00  0.00
  PLT85819                1.00   0.02  0.98  0.00  0.00  0.00  0.00  0.00  0.00  0.00
  PLT85820                1.00   0.02  0.98  0.00  0.00  0.00  0.00  0.00  0.00  0.00
  PLT85821                1.00   0.01  0.00  0.00  0.00  0.98  0.00  0.00  0.00  0.00
  PLT85822                1.00   0.01  0.99  0.00  0.00  0.00  0.00  0.00  0.00  0.00
  PLT85905                1.00   0.02  0.00  0.00  0.01  0.98  0.00  0.00  0.00  0.00
  PLT85916                1.00   0.04  0.00  0.00  0.01  0.96  0.00  0.00  0.00  0.00
  PLT85917                1.00   0.01  0.99  0.00  0.00  0.00  0.00  0.00  0.00  0.00
  PLT100880               1.00   1.00  0.00  0.00  0.00  0.00  0.00  0.00  0.00  0.00
  PLT100881               1.00   1.00  0.00  0.00  0.00  0.00  0.00  0.00  0.00  0.00
  PLT100882               1.00   1.00  0.00  0.00  0.00  0.00  0.00  0.00  0.00  0.00
  PLT100883               1.00   0.04  0.96  0.00  0.00  0.00  0.00  0.00  0.00  0.00
  PLT85737                1.00   0.07  0.00  0.00  0.07  0.86  0.00  0.00  0.00  0.00
  PLT85719                1.00   0.02  0.98  0.00  0.00  0.00  0.00  0.00  0.00  0.00
  PLT85720                1.00   0.02  0.00  0.00  0.01  0.97  0.00  0.00  0.00  0.00
  PLT85747                1.00   0.08  0.00  0.00  0.06  0.86  0.00  0.00  0.61  0.00
  PLT85941                1.00   0.11  0.00  0.00  0.89  0.00  0.00  0.00  0.00  0.00
  PLT85922                1.00   0.15  0.00  0.00  0.27  0.58  0.00  0.00  0.00  0.00
  PLT85749                1.00   0.12  0.00  0.00  0.88  0.00  0.00  0.00  0.82  0.00
  PLT85703                1.00   0.10  0.00  0.00  0.90  0.00  0.00  0.00  0.00  0.00
  PLV86064                1.00   0.00  0.00  0.00  0.00  1.00  0.00  0.00  0.00  0.00
  PLT85748                1.00   0.11  0.00  0.00  0.89  0.00  0.00  0.00  0.00  0.00
  PLT85771                1.00   0.09  0.00  0.00  0.08  0.83  0.00  0.00  0.90  0.00
  PLT85768                1.00   0.09  0.04  0.00  0.18  0.69  0.00  0.00  0.87  0.00
  PLB86093                1.00   0.00  0.00  0.00  0.99  0.01  0.00  0.00  0.98  0.00
  PLT85741                1.00   0.09  0.00  0.00  0.89  0.02  0.00  0.00  0.76  0.00
  PLT85750                1.00   0.13  0.00  0.00  0.16  0.71  0.00  0.00  0.00  0.00
  PLT85744                1.00   0.10  0.00  0.00  0.90  0.00  0.00  0.00  0.00  0.00
  PLT85770                1.00   0.10  0.00  0.00  0.90  0.00  0.00  0.00  0.87  0.00
  PLT85769                1.00   0.10  0.00  0.00  0.90  0.00  0.00  0.00  0.68  0.00
  PLT85940                1.00   0.12  0.00  0.00  0.88  0.00  0.00  0.00  0.66  0.00
  PLT85700                1.00   0.07  0.00  0.00  0.93  0.00  0.00  0.00  0.00  0.00
  PLT85923                1.00   0.13  0.00  0.00  0.87  0.00  0.00  0.00  0.00  0.00
  
  
  *************************
  Conduit Surcharge Summary
  *************************
  
  No conduits were surcharged.
  
  
  ********************
  Subcatchment Results
  ********************
  
  <<< Subcatchment C_PMI92748 >>>
  ---------------------------------------------------
  Date        Time        Precip.    Losses    Runoff
                            mm/hr     mm/hr       LPS
  ---------------------------------------------------
  AUG-23-2013 00:01:00      0.000     0.000    0.0000
  AUG-23-2013 00:02:00      0.000     0.000    0.0000
  AUG-23-2013 00:03:00      0.000     0.000    0.0000
  AUG-23-2013 00:04:00      0.000     0.000    0.0000
  AUG-23-2013 00:05:00      0.000     0.000    0.0000
  AUG-23-2013 00:06:00      0.000     0.000    0.0000
  AUG-23-2013 00:07:00      0.000     0.000    0.0000
  AUG-23-2013 00:08:00      0.000     0.000    0.0000
  AUG-23-2013 00:09:00      0.000     0.000    0.0000
  AUG-23-2013 00:10:00      0.000     0.000    0.0000
  AUG-23-2013 00:11:00      0.000     0.000    0.0000
  AUG-23-2013 00:12:00      0.000     0.000    0.0000
  AUG-23-2013 00:13:00      0.000     0.000    0.0000
  AUG-23-2013 00:14:00      0.000     0.000    0.0000
  AUG-23-2013 00:15:00      0.000     0.000    0.0000
  AUG-23-2013 00:16:00      0.000     0.000    0.0000
  AUG-23-2013 00:17:00      0.000     0.000    0.0000
  AUG-23-2013 00:18:00      0.000     0.000    0.0000
  AUG-23-2013 00:19:00      0.000     0.000    0.0000
  AUG-23-2013 00:20:00      0.000     0.000    0.0000
  AUG-23-2013 00:21:00      0.000     0.000    0.0000
  AUG-23-2013 00:22:00      0.000     0.000    0.0000
  AUG-23-2013 00:23:00      0.000     0.000    0.0000
  AUG-23-2013 00:24:00      0.000     0.000    0.0000
  AUG-23-2013 00:25:00      0.000     0.000    0.0000
  AUG-23-2013 00:26:00      0.000     0.000    0.0000
  AUG-23-2013 00:27:00      0.000     0.000    0.0000
  AUG-23-2013 00:28:00      0.000     0.000    0.0000
  AUG-23-2013 00:29:00      0.000     0.000    0.0000
  AUG-23-2013 00:30:00      0.000     0.000    0.0000
  AUG-23-2013 00:31:00      0.000     0.000    0.0000
  AUG-23-2013 00:32:00      0.000     0.000    0.0000
  AUG-23-2013 00:33:00      0.000     0.000    0.0000
  AUG-23-2013 00:34:00      0.000     0.000    0.0000
  AUG-23-2013 00:35:00      0.000     0.000    0.0000
  AUG-23-2013 00:36:00      0.000     0.000    0.0000
  AUG-23-2013 00:37:00      0.000     0.000    0.0000
  AUG-23-2013 00:38:00      0.000     0.000    0.0000
  AUG-23-2013 00:39:00      0.000     0.000    0.0000
  AUG-23-2013 00:40:00      0.000     0.000    0.0000
  AUG-23-2013 00:41:00      0.000     0.000    0.0000
  AUG-23-2013 00:42:00      0.000     0.000    0.0000
  AUG-23-2013 00:43:00      0.000     0.000    0.0000
  AUG-23-2013 00:44:00      0.000     0.000    0.0000
  AUG-23-2013 00:45:00      0.000     0.000    0.0000
  AUG-23-2013 00:46:00      0.000     0.000    0.0000
  AUG-23-2013 00:47:00      0.000     0.000    0.0000
  AUG-23-2013 00:48:00      0.000     0.000    0.0000
  AUG-23-2013 00:49:00      0.000     0.000    0.0000
  AUG-23-2013 00:50:00      0.000     0.000    0.0000
  AUG-23-2013 00:51:00      0.000     0.000    0.0000
  AUG-23-2013 00:52:00      0.000     0.000    0.0000
  AUG-23-2013 00:53:00      0.000     0.000    0.0000
  AUG-23-2013 00:54:00      0.000     0.000    0.0000
  AUG-23-2013 00:55:00      0.000     0.000    0.0000
  AUG-23-2013 00:56:00      0.000     0.000    0.0000
  AUG-23-2013 00:57:00      0.000     0.000    0.0000
  AUG-23-2013 00:58:00      0.000     0.000    0.0000
  AUG-23-2013 00:59:00      0.000     0.000    0.0000
  AUG-23-2013 01:00:00      0.000     0.000    0.0000
  AUG-23-2013 01:01:00      0.000     0.000    0.0000
  AUG-23-2013 01:02:00      0.000     0.000    0.0000
  AUG-23-2013 01:03:00      0.000     0.000    0.0000
  AUG-23-2013 01:04:00      0.000     0.000    0.0000
  AUG-23-2013 01:05:00      0.000     0.000    0.0000
  AUG-23-2013 01:06:00      0.000     0.000    0.0000
  AUG-23-2013 01:07:00      0.000     0.000    0.0000
  AUG-23-2013 01:08:00      0.000     0.000    0.0000
  AUG-23-2013 01:09:00      0.000     0.000    0.0000
  AUG-23-2013 01:10:00      0.000     0.000    0.0000
  AUG-23-2013 01:11:00      0.000     0.000    0.0000
  AUG-23-2013 01:12:00      0.000     0.000    0.0000
  AUG-23-2013 01:13:00      0.000     0.000    0.0000
  AUG-23-2013 01:14:00      0.000     0.000    0.0000
  AUG-23-2013 01:15:00      0.000     0.000    0.0000
  AUG-23-2013 01:16:00      0.000     0.000    0.0000
  AUG-23-2013 01:17:00      0.000     0.000    0.0000
  AUG-23-2013 01:18:00      0.000     0.000    0.0000
  AUG-23-2013 01:19:00      0.000     0.000    0.0000
  AUG-23-2013 01:20:00      0.000     0.000    0.0000
  AUG-23-2013 01:21:00      0.000     0.000    0.0000
  AUG-23-2013 01:22:00      0.000     0.000    0.0000
  AUG-23-2013 01:23:00      0.000     0.000    0.0000
  AUG-23-2013 01:24:00      0.000     0.000    0.0000
  AUG-23-2013 01:25:00      0.000     0.000    0.0000
  AUG-23-2013 01:26:00      0.000     0.000    0.0000
  AUG-23-2013 01:27:00      0.000     0.000    0.0000
  AUG-23-2013 01:28:00      0.000     0.000    0.0000
  AUG-23-2013 01:29:00      0.000     0.000    0.0000
  AUG-23-2013 01:30:00      0.000     0.000    0.0000
  AUG-23-2013 01:31:00      0.000     0.000    0.0000
  AUG-23-2013 01:32:00      0.000     0.000    0.0000
  AUG-23-2013 01:33:00      0.000     0.000    0.0000
  AUG-23-2013 01:34:00      0.000     0.000    0.0000
  AUG-23-2013 01:35:00      0.000     0.000    0.0000
  AUG-23-2013 01:36:00      0.000     0.000    0.0000
  AUG-23-2013 01:37:00      0.000     0.000    0.0000
  AUG-23-2013 01:38:00      0.000     0.000    0.0000
  AUG-23-2013 01:39:00      0.000     0.000    0.0000
  AUG-23-2013 01:40:00      0.000     0.000    0.0000
  AUG-23-2013 01:41:00      0.000     0.000    0.0000
  AUG-23-2013 01:42:00      0.000     0.000    0.0000
  AUG-23-2013 01:43:00      0.000     0.000    0.0000
  AUG-23-2013 01:44:00      0.000     0.000    0.0000
  AUG-23-2013 01:45:00      0.000     0.000    0.0000
  AUG-23-2013 01:46:00      0.000     0.000    0.0000
  AUG-23-2013 01:47:00      0.000     0.000    0.0000
  AUG-23-2013 01:48:00      0.000     0.000    0.0000
  AUG-23-2013 01:49:00      0.000     0.000    0.0000
  AUG-23-2013 01:50:00      0.000     0.000    0.0000
  AUG-23-2013 01:51:00      0.000     0.000    0.0000
  AUG-23-2013 01:52:00      0.000     0.000    0.0000
  AUG-23-2013 01:53:00      0.000     0.000    0.0000
  AUG-23-2013 01:54:00      0.000     0.000    0.0000
  AUG-23-2013 01:55:00      0.000     0.000    0.0000
  AUG-23-2013 01:56:00      0.000     0.000    0.0000
  AUG-23-2013 01:57:00      0.000     0.000    0.0000
  AUG-23-2013 01:58:00      0.000     0.000    0.0000
  AUG-23-2013 01:59:00      0.000     0.000    0.0000
  AUG-23-2013 02:00:00      0.000     0.000    0.0000
  AUG-23-2013 02:01:00      0.000     0.000    0.0000
  AUG-23-2013 02:02:00      0.000     0.000    0.0000
  AUG-23-2013 02:03:00      0.000     0.000    0.0000
  AUG-23-2013 02:04:00      0.000     0.000    0.0000
  AUG-23-2013 02:05:00      0.000     0.000    0.0000
  AUG-23-2013 02:06:00      0.000     0.000    0.0000
  AUG-23-2013 02:07:00      0.000     0.000    0.0000
  AUG-23-2013 02:08:00      0.000     0.000    0.0000
  AUG-23-2013 02:09:00      0.000     0.000    0.0000
  AUG-23-2013 02:10:00      0.000     0.000    0.0000
  AUG-23-2013 02:11:00      0.000     0.000    0.0000
  AUG-23-2013 02:12:00      0.000     0.000    0.0000
  AUG-23-2013 02:13:00      0.000     0.000    0.0000
  AUG-23-2013 02:14:00      0.000     0.000    0.0000
  AUG-23-2013 02:15:00      0.000     0.000    0.0000
  AUG-23-2013 02:16:00      0.000     0.000    0.0000
  AUG-23-2013 02:17:00      0.000     0.000    0.0000
  AUG-23-2013 02:18:00      0.000     0.000    0.0000
  AUG-23-2013 02:19:00      0.000     0.000    0.0000
  AUG-23-2013 02:20:00      0.000     0.000    0.0000
  AUG-23-2013 02:21:00      0.000     0.000    0.0000
  AUG-23-2013 02:22:00      0.000     0.000    0.0000
  AUG-23-2013 02:23:00      0.000     0.000    0.0000
  AUG-23-2013 02:24:00      0.000     0.000    0.0000
  AUG-23-2013 02:25:00      0.000     0.000    0.0000
  AUG-23-2013 02:26:00      0.000     0.000    0.0000
  AUG-23-2013 02:27:00      0.000     0.000    0.0000
  AUG-23-2013 02:28:00      0.000     0.000    0.0000
  AUG-23-2013 02:29:00      0.000     0.000    0.0000
  AUG-23-2013 02:30:00      0.000     0.000    0.0000
  AUG-23-2013 02:31:00      0.000     0.000    0.0000
  AUG-23-2013 02:32:00      0.000     0.000    0.0000
  AUG-23-2013 02:33:00      0.000     0.000    0.0000
  AUG-23-2013 02:34:00      0.000     0.000    0.0000
  AUG-23-2013 02:35:00      0.000     0.000    0.0000
  AUG-23-2013 02:36:00      0.000     0.000    0.0000
  AUG-23-2013 02:37:00      0.000     0.000    0.0000
  AUG-23-2013 02:38:00      0.000     0.000    0.0000
  AUG-23-2013 02:39:00      0.000     0.000    0.0000
  AUG-23-2013 02:40:00      0.000     0.000    0.0000
  AUG-23-2013 02:41:00      0.000     0.000    0.0000
  AUG-23-2013 02:42:00      0.000     0.000    0.0000
  AUG-23-2013 02:43:00      0.000     0.000    0.0000
  AUG-23-2013 02:44:00      0.000     0.000    0.0000
  AUG-23-2013 02:45:00      0.000     0.000    0.0000
  AUG-23-2013 02:46:00      0.000     0.000    0.0000
  AUG-23-2013 02:47:00      0.000     0.000    0.0000
  AUG-23-2013 02:48:00      0.000     0.000    0.0000
  AUG-23-2013 02:49:00      0.000     0.000    0.0000
  AUG-23-2013 02:50:00      0.000     0.000    0.0000
  AUG-23-2013 02:51:00      0.000     0.000    0.0000
  AUG-23-2013 02:52:00      0.000     0.000    0.0000
  AUG-23-2013 02:53:00      0.000     0.000    0.0000
  AUG-23-2013 02:54:00      0.000     0.000    0.0000
  AUG-23-2013 02:55:00      0.000     0.000    0.0000
  AUG-23-2013 02:56:00      0.000     0.000    0.0000
  AUG-23-2013 02:57:00      0.000     0.000    0.0000
  AUG-23-2013 02:58:00      0.000     0.000    0.0000
  AUG-23-2013 02:59:00      0.000     0.000    0.0000
  AUG-23-2013 03:00:00      0.000     0.000    0.0000
  
  
  <<< Subcatchment C_PMP93182 >>>
  ---------------------------------------------------
  Date        Time        Precip.    Losses    Runoff
                            mm/hr     mm/hr       LPS
  ---------------------------------------------------
  AUG-23-2013 00:01:00      0.000     0.000    0.0000
  AUG-23-2013 00:02:00      0.000     0.000    0.0000
  AUG-23-2013 00:03:00      0.000     0.000    0.0000
  AUG-23-2013 00:04:00      0.000     0.000    0.0000
  AUG-23-2013 00:05:00      0.000     0.000    0.0000
  AUG-23-2013 00:06:00      0.000     0.000    0.0000
  AUG-23-2013 00:07:00      0.000     0.000    0.0000
  AUG-23-2013 00:08:00      0.000     0.000    0.0000
  AUG-23-2013 00:09:00      0.000     0.000    0.0000
  AUG-23-2013 00:10:00      0.000     0.000    0.0000
  AUG-23-2013 00:11:00      0.000     0.000    0.0000
  AUG-23-2013 00:12:00      0.000     0.000    0.0000
  AUG-23-2013 00:13:00      0.000     0.000    0.0000
  AUG-23-2013 00:14:00      0.000     0.000    0.0000
  AUG-23-2013 00:15:00      0.000     0.000    0.0000
  AUG-23-2013 00:16:00      0.000     0.000    0.0000
  AUG-23-2013 00:17:00      0.000     0.000    0.0000
  AUG-23-2013 00:18:00      0.000     0.000    0.0000
  AUG-23-2013 00:19:00      0.000     0.000    0.0000
  AUG-23-2013 00:20:00      0.000     0.000    0.0000
  AUG-23-2013 00:21:00      0.000     0.000    0.0000
  AUG-23-2013 00:22:00      0.000     0.000    0.0000
  AUG-23-2013 00:23:00      0.000     0.000    0.0000
  AUG-23-2013 00:24:00      0.000     0.000    0.0000
  AUG-23-2013 00:25:00      0.000     0.000    0.0000
  AUG-23-2013 00:26:00      0.000     0.000    0.0000
  AUG-23-2013 00:27:00      0.000     0.000    0.0000
  AUG-23-2013 00:28:00      0.000     0.000    0.0000
  AUG-23-2013 00:29:00      0.000     0.000    0.0000
  AUG-23-2013 00:30:00      0.000     0.000    0.0000
  AUG-23-2013 00:31:00      0.000     0.000    0.0000
  AUG-23-2013 00:32:00      0.000     0.000    0.0000
  AUG-23-2013 00:33:00      0.000     0.000    0.0000
  AUG-23-2013 00:34:00      0.000     0.000    0.0000
  AUG-23-2013 00:35:00      0.000     0.000    0.0000
  AUG-23-2013 00:36:00      0.000     0.000    0.0000
  AUG-23-2013 00:37:00      0.000     0.000    0.0000
  AUG-23-2013 00:38:00      0.000     0.000    0.0000
  AUG-23-2013 00:39:00      0.000     0.000    0.0000
  AUG-23-2013 00:40:00      0.000     0.000    0.0000
  AUG-23-2013 00:41:00      0.000     0.000    0.0000
  AUG-23-2013 00:42:00      0.000     0.000    0.0000
  AUG-23-2013 00:43:00      0.000     0.000    0.0000
  AUG-23-2013 00:44:00      0.000     0.000    0.0000
  AUG-23-2013 00:45:00      0.000     0.000    0.0000
  AUG-23-2013 00:46:00      0.000     0.000    0.0000
  AUG-23-2013 00:47:00      0.000     0.000    0.0000
  AUG-23-2013 00:48:00      0.000     0.000    0.0000
  AUG-23-2013 00:49:00      0.000     0.000    0.0000
  AUG-23-2013 00:50:00      0.000     0.000    0.0000
  AUG-23-2013 00:51:00      0.000     0.000    0.0000
  AUG-23-2013 00:52:00      0.000     0.000    0.0000
  AUG-23-2013 00:53:00      0.000     0.000    0.0000
  AUG-23-2013 00:54:00      0.000     0.000    0.0000
  AUG-23-2013 00:55:00      0.000     0.000    0.0000
  AUG-23-2013 00:56:00      0.000     0.000    0.0000
  AUG-23-2013 00:57:00      0.000     0.000    0.0000
  AUG-23-2013 00:58:00      0.000     0.000    0.0000
  AUG-23-2013 00:59:00      0.000     0.000    0.0000
  AUG-23-2013 01:00:00      0.000     0.000    0.0000
  AUG-23-2013 01:01:00      0.000     0.000    0.0000
  AUG-23-2013 01:02:00      0.000     0.000    0.0000
  AUG-23-2013 01:03:00      0.000     0.000    0.0000
  AUG-23-2013 01:04:00      0.000     0.000    0.0000
  AUG-23-2013 01:05:00      0.000     0.000    0.0000
  AUG-23-2013 01:06:00      0.000     0.000    0.0000
  AUG-23-2013 01:07:00      0.000     0.000    0.0000
  AUG-23-2013 01:08:00      0.000     0.000    0.0000
  AUG-23-2013 01:09:00      0.000     0.000    0.0000
  AUG-23-2013 01:10:00      0.000     0.000    0.0000
  AUG-23-2013 01:11:00      0.000     0.000    0.0000
  AUG-23-2013 01:12:00      0.000     0.000    0.0000
  AUG-23-2013 01:13:00      0.000     0.000    0.0000
  AUG-23-2013 01:14:00      0.000     0.000    0.0000
  AUG-23-2013 01:15:00      0.000     0.000    0.0000
  AUG-23-2013 01:16:00      0.000     0.000    0.0000
  AUG-23-2013 01:17:00      0.000     0.000    0.0000
  AUG-23-2013 01:18:00      0.000     0.000    0.0000
  AUG-23-2013 01:19:00      0.000     0.000    0.0000
  AUG-23-2013 01:20:00      0.000     0.000    0.0000
  AUG-23-2013 01:21:00      0.000     0.000    0.0000
  AUG-23-2013 01:22:00      0.000     0.000    0.0000
  AUG-23-2013 01:23:00      0.000     0.000    0.0000
  AUG-23-2013 01:24:00      0.000     0.000    0.0000
  AUG-23-2013 01:25:00      0.000     0.000    0.0000
  AUG-23-2013 01:26:00      0.000     0.000    0.0000
  AUG-23-2013 01:27:00      0.000     0.000    0.0000
  AUG-23-2013 01:28:00      0.000     0.000    0.0000
  AUG-23-2013 01:29:00      0.000     0.000    0.0000
  AUG-23-2013 01:30:00      0.000     0.000    0.0000
  AUG-23-2013 01:31:00      0.000     0.000    0.0000
  AUG-23-2013 01:32:00      0.000     0.000    0.0000
  AUG-23-2013 01:33:00      0.000     0.000    0.0000
  AUG-23-2013 01:34:00      0.000     0.000    0.0000
  AUG-23-2013 01:35:00      0.000     0.000    0.0000
  AUG-23-2013 01:36:00      0.000     0.000    0.0000
  AUG-23-2013 01:37:00      0.000     0.000    0.0000
  AUG-23-2013 01:38:00      0.000     0.000    0.0000
  AUG-23-2013 01:39:00      0.000     0.000    0.0000
  AUG-23-2013 01:40:00      0.000     0.000    0.0000
  AUG-23-2013 01:41:00      0.000     0.000    0.0000
  AUG-23-2013 01:42:00      0.000     0.000    0.0000
  AUG-23-2013 01:43:00      0.000     0.000    0.0000
  AUG-23-2013 01:44:00      0.000     0.000    0.0000
  AUG-23-2013 01:45:00      0.000     0.000    0.0000
  AUG-23-2013 01:46:00      0.000     0.000    0.0000
  AUG-23-2013 01:47:00      0.000     0.000    0.0000
  AUG-23-2013 01:48:00      0.000     0.000    0.0000
  AUG-23-2013 01:49:00      0.000     0.000    0.0000
  AUG-23-2013 01:50:00      0.000     0.000    0.0000
  AUG-23-2013 01:51:00      0.000     0.000    0.0000
  AUG-23-2013 01:52:00      0.000     0.000    0.0000
  AUG-23-2013 01:53:00      0.000     0.000    0.0000
  AUG-23-2013 01:54:00      0.000     0.000    0.0000
  AUG-23-2013 01:55:00      0.000     0.000    0.0000
  AUG-23-2013 01:56:00      0.000     0.000    0.0000
  AUG-23-2013 01:57:00      0.000     0.000    0.0000
  AUG-23-2013 01:58:00      0.000     0.000    0.0000
  AUG-23-2013 01:59:00      0.000     0.000    0.0000
  AUG-23-2013 02:00:00      0.000     0.000    0.0000
  AUG-23-2013 02:01:00      0.000     0.000    0.0000
  AUG-23-2013 02:02:00      0.000     0.000    0.0000
  AUG-23-2013 02:03:00      0.000     0.000    0.0000
  AUG-23-2013 02:04:00      0.000     0.000    0.0000
  AUG-23-2013 02:05:00      0.000     0.000    0.0000
  AUG-23-2013 02:06:00      0.000     0.000    0.0000
  AUG-23-2013 02:07:00      0.000     0.000    0.0000
  AUG-23-2013 02:08:00      0.000     0.000    0.0000
  AUG-23-2013 02:09:00      0.000     0.000    0.0000
  AUG-23-2013 02:10:00      0.000     0.000    0.0000
  AUG-23-2013 02:11:00      0.000     0.000    0.0000
  AUG-23-2013 02:12:00      0.000     0.000    0.0000
  AUG-23-2013 02:13:00      0.000     0.000    0.0000
  AUG-23-2013 02:14:00      0.000     0.000    0.0000
  AUG-23-2013 02:15:00      0.000     0.000    0.0000
  AUG-23-2013 02:16:00      0.000     0.000    0.0000
  AUG-23-2013 02:17:00      0.000     0.000    0.0000
  AUG-23-2013 02:18:00      0.000     0.000    0.0000
  AUG-23-2013 02:19:00      0.000     0.000    0.0000
  AUG-23-2013 02:20:00      0.000     0.000    0.0000
  AUG-23-2013 02:21:00      0.000     0.000    0.0000
  AUG-23-2013 02:22:00      0.000     0.000    0.0000
  AUG-23-2013 02:23:00      0.000     0.000    0.0000
  AUG-23-2013 02:24:00      0.000     0.000    0.0000
  AUG-23-2013 02:25:00      0.000     0.000    0.0000
  AUG-23-2013 02:26:00      0.000     0.000    0.0000
  AUG-23-2013 02:27:00      0.000     0.000    0.0000
  AUG-23-2013 02:28:00      0.000     0.000    0.0000
  AUG-23-2013 02:29:00      0.000     0.000    0.0000
  AUG-23-2013 02:30:00      0.000     0.000    0.0000
  AUG-23-2013 02:31:00      0.000     0.000    0.0000
  AUG-23-2013 02:32:00      0.000     0.000    0.0000
  AUG-23-2013 02:33:00      0.000     0.000    0.0000
  AUG-23-2013 02:34:00      0.000     0.000    0.0000
  AUG-23-2013 02:35:00      0.000     0.000    0.0000
  AUG-23-2013 02:36:00      0.000     0.000    0.0000
  AUG-23-2013 02:37:00      0.000     0.000    0.0000
  AUG-23-2013 02:38:00      0.000     0.000    0.0000
  AUG-23-2013 02:39:00      0.000     0.000    0.0000
  AUG-23-2013 02:40:00      0.000     0.000    0.0000
  AUG-23-2013 02:41:00      0.000     0.000    0.0000
  AUG-23-2013 02:42:00      0.000     0.000    0.0000
  AUG-23-2013 02:43:00      0.000     0.000    0.0000
  AUG-23-2013 02:44:00      0.000     0.000    0.0000
  AUG-23-2013 02:45:00      0.000     0.000    0.0000
  AUG-23-2013 02:46:00      0.000     0.000    0.0000
  AUG-23-2013 02:47:00      0.000     0.000    0.0000
  AUG-23-2013 02:48:00      0.000     0.000    0.0000
  AUG-23-2013 02:49:00      0.000     0.000    0.0000
  AUG-23-2013 02:50:00      0.000     0.000    0.0000
  AUG-23-2013 02:51:00      0.000     0.000    0.0000
  AUG-23-2013 02:52:00      0.000     0.000    0.0000
  AUG-23-2013 02:53:00      0.000     0.000    0.0000
  AUG-23-2013 02:54:00      0.000     0.000    0.0000
  AUG-23-2013 02:55:00      0.000     0.000    0.0000
  AUG-23-2013 02:56:00      0.000     0.000    0.0000
  AUG-23-2013 02:57:00      0.000     0.000    0.0000
  AUG-23-2013 02:58:00      0.000     0.000    0.0000
  AUG-23-2013 02:59:00      0.000     0.000    0.0000
  AUG-23-2013 03:00:00      0.000     0.000    0.0000
  
  
  <<< Subcatchment C_PMP92904 >>>
  ---------------------------------------------------
  Date        Time        Precip.    Losses    Runoff
                            mm/hr     mm/hr       LPS
  ---------------------------------------------------
  AUG-23-2013 00:01:00      0.000     0.000    0.0000
  AUG-23-2013 00:02:00      0.000     0.000    0.0000
  AUG-23-2013 00:03:00      0.000     0.000    0.0000
  AUG-23-2013 00:04:00      0.000     0.000    0.0000
  AUG-23-2013 00:05:00      0.000     0.000    0.0000
  AUG-23-2013 00:06:00      0.000     0.000    0.0000
  AUG-23-2013 00:07:00      0.000     0.000    0.0000
  AUG-23-2013 00:08:00      0.000     0.000    0.0000
  AUG-23-2013 00:09:00      0.000     0.000    0.0000
  AUG-23-2013 00:10:00      0.000     0.000    0.0000
  AUG-23-2013 00:11:00      0.000     0.000    0.0000
  AUG-23-2013 00:12:00      0.000     0.000    0.0000
  AUG-23-2013 00:13:00      0.000     0.000    0.0000
  AUG-23-2013 00:14:00      0.000     0.000    0.0000
  AUG-23-2013 00:15:00      0.000     0.000    0.0000
  AUG-23-2013 00:16:00      0.000     0.000    0.0000
  AUG-23-2013 00:17:00      0.000     0.000    0.0000
  AUG-23-2013 00:18:00      0.000     0.000    0.0000
  AUG-23-2013 00:19:00      0.000     0.000    0.0000
  AUG-23-2013 00:20:00      0.000     0.000    0.0000
  AUG-23-2013 00:21:00      0.000     0.000    0.0000
  AUG-23-2013 00:22:00      0.000     0.000    0.0000
  AUG-23-2013 00:23:00      0.000     0.000    0.0000
  AUG-23-2013 00:24:00      0.000     0.000    0.0000
  AUG-23-2013 00:25:00      0.000     0.000    0.0000
  AUG-23-2013 00:26:00      0.000     0.000    0.0000
  AUG-23-2013 00:27:00      0.000     0.000    0.0000
  AUG-23-2013 00:28:00      0.000     0.000    0.0000
  AUG-23-2013 00:29:00      0.000     0.000    0.0000
  AUG-23-2013 00:30:00      0.000     0.000    0.0000
  AUG-23-2013 00:31:00      0.000     0.000    0.0000
  AUG-23-2013 00:32:00      0.000     0.000    0.0000
  AUG-23-2013 00:33:00      0.000     0.000    0.0000
  AUG-23-2013 00:34:00      0.000     0.000    0.0000
  AUG-23-2013 00:35:00      0.000     0.000    0.0000
  AUG-23-2013 00:36:00      0.000     0.000    0.0000
  AUG-23-2013 00:37:00      0.000     0.000    0.0000
  AUG-23-2013 00:38:00      0.000     0.000    0.0000
  AUG-23-2013 00:39:00      0.000     0.000    0.0000
  AUG-23-2013 00:40:00      0.000     0.000    0.0000
  AUG-23-2013 00:41:00      0.000     0.000    0.0000
  AUG-23-2013 00:42:00      0.000     0.000    0.0000
  AUG-23-2013 00:43:00      0.000     0.000    0.0000
  AUG-23-2013 00:44:00      0.000     0.000    0.0000
  AUG-23-2013 00:45:00      0.000     0.000    0.0000
  AUG-23-2013 00:46:00      0.000     0.000    0.0000
  AUG-23-2013 00:47:00      0.000     0.000    0.0000
  AUG-23-2013 00:48:00      0.000     0.000    0.0000
  AUG-23-2013 00:49:00      0.000     0.000    0.0000
  AUG-23-2013 00:50:00      0.000     0.000    0.0000
  AUG-23-2013 00:51:00      0.000     0.000    0.0000
  AUG-23-2013 00:52:00      0.000     0.000    0.0000
  AUG-23-2013 00:53:00      0.000     0.000    0.0000
  AUG-23-2013 00:54:00      0.000     0.000    0.0000
  AUG-23-2013 00:55:00      0.000     0.000    0.0000
  AUG-23-2013 00:56:00      0.000     0.000    0.0000
  AUG-23-2013 00:57:00      0.000     0.000    0.0000
  AUG-23-2013 00:58:00      0.000     0.000    0.0000
  AUG-23-2013 00:59:00      0.000     0.000    0.0000
  AUG-23-2013 01:00:00      0.000     0.000    0.0000
  AUG-23-2013 01:01:00      0.000     0.000    0.0000
  AUG-23-2013 01:02:00      0.000     0.000    0.0000
  AUG-23-2013 01:03:00      0.000     0.000    0.0000
  AUG-23-2013 01:04:00      0.000     0.000    0.0000
  AUG-23-2013 01:05:00      0.000     0.000    0.0000
  AUG-23-2013 01:06:00      0.000     0.000    0.0000
  AUG-23-2013 01:07:00      0.000     0.000    0.0000
  AUG-23-2013 01:08:00      0.000     0.000    0.0000
  AUG-23-2013 01:09:00      0.000     0.000    0.0000
  AUG-23-2013 01:10:00      0.000     0.000    0.0000
  AUG-23-2013 01:11:00      0.000     0.000    0.0000
  AUG-23-2013 01:12:00      0.000     0.000    0.0000
  AUG-23-2013 01:13:00      0.000     0.000    0.0000
  AUG-23-2013 01:14:00      0.000     0.000    0.0000
  AUG-23-2013 01:15:00      0.000     0.000    0.0000
  AUG-23-2013 01:16:00      0.000     0.000    0.0000
  AUG-23-2013 01:17:00      0.000     0.000    0.0000
  AUG-23-2013 01:18:00      0.000     0.000    0.0000
  AUG-23-2013 01:19:00      0.000     0.000    0.0000
  AUG-23-2013 01:20:00      0.000     0.000    0.0000
  AUG-23-2013 01:21:00      0.000     0.000    0.0000
  AUG-23-2013 01:22:00      0.000     0.000    0.0000
  AUG-23-2013 01:23:00      0.000     0.000    0.0000
  AUG-23-2013 01:24:00      0.000     0.000    0.0000
  AUG-23-2013 01:25:00      0.000     0.000    0.0000
  AUG-23-2013 01:26:00      0.000     0.000    0.0000
  AUG-23-2013 01:27:00      0.000     0.000    0.0000
  AUG-23-2013 01:28:00      0.000     0.000    0.0000
  AUG-23-2013 01:29:00      0.000     0.000    0.0000
  AUG-23-2013 01:30:00      0.000     0.000    0.0000
  AUG-23-2013 01:31:00      0.000     0.000    0.0000
  AUG-23-2013 01:32:00      0.000     0.000    0.0000
  AUG-23-2013 01:33:00      0.000     0.000    0.0000
  AUG-23-2013 01:34:00      0.000     0.000    0.0000
  AUG-23-2013 01:35:00      0.000     0.000    0.0000
  AUG-23-2013 01:36:00      0.000     0.000    0.0000
  AUG-23-2013 01:37:00      0.000     0.000    0.0000
  AUG-23-2013 01:38:00      0.000     0.000    0.0000
  AUG-23-2013 01:39:00      0.000     0.000    0.0000
  AUG-23-2013 01:40:00      0.000     0.000    0.0000
  AUG-23-2013 01:41:00      0.000     0.000    0.0000
  AUG-23-2013 01:42:00      0.000     0.000    0.0000
  AUG-23-2013 01:43:00      0.000     0.000    0.0000
  AUG-23-2013 01:44:00      0.000     0.000    0.0000
  AUG-23-2013 01:45:00      0.000     0.000    0.0000
  AUG-23-2013 01:46:00      0.000     0.000    0.0000
  AUG-23-2013 01:47:00      0.000     0.000    0.0000
  AUG-23-2013 01:48:00      0.000     0.000    0.0000
  AUG-23-2013 01:49:00      0.000     0.000    0.0000
  AUG-23-2013 01:50:00      0.000     0.000    0.0000
  AUG-23-2013 01:51:00      0.000     0.000    0.0000
  AUG-23-2013 01:52:00      0.000     0.000    0.0000
  AUG-23-2013 01:53:00      0.000     0.000    0.0000
  AUG-23-2013 01:54:00      0.000     0.000    0.0000
  AUG-23-2013 01:55:00      0.000     0.000    0.0000
  AUG-23-2013 01:56:00      0.000     0.000    0.0000
  AUG-23-2013 01:57:00      0.000     0.000    0.0000
  AUG-23-2013 01:58:00      0.000     0.000    0.0000
  AUG-23-2013 01:59:00      0.000     0.000    0.0000
  AUG-23-2013 02:00:00      0.000     0.000    0.0000
  AUG-23-2013 02:01:00      0.000     0.000    0.0000
  AUG-23-2013 02:02:00      0.000     0.000    0.0000
  AUG-23-2013 02:03:00      0.000     0.000    0.0000
  AUG-23-2013 02:04:00      0.000     0.000    0.0000
  AUG-23-2013 02:05:00      0.000     0.000    0.0000
  AUG-23-2013 02:06:00      0.000     0.000    0.0000
  AUG-23-2013 02:07:00      0.000     0.000    0.0000
  AUG-23-2013 02:08:00      0.000     0.000    0.0000
  AUG-23-2013 02:09:00      0.000     0.000    0.0000
  AUG-23-2013 02:10:00      0.000     0.000    0.0000
  AUG-23-2013 02:11:00      0.000     0.000    0.0000
  AUG-23-2013 02:12:00      0.000     0.000    0.0000
  AUG-23-2013 02:13:00      0.000     0.000    0.0000
  AUG-23-2013 02:14:00      0.000     0.000    0.0000
  AUG-23-2013 02:15:00      0.000     0.000    0.0000
  AUG-23-2013 02:16:00      0.000     0.000    0.0000
  AUG-23-2013 02:17:00      0.000     0.000    0.0000
  AUG-23-2013 02:18:00      0.000     0.000    0.0000
  AUG-23-2013 02:19:00      0.000     0.000    0.0000
  AUG-23-2013 02:20:00      0.000     0.000    0.0000
  AUG-23-2013 02:21:00      0.000     0.000    0.0000
  AUG-23-2013 02:22:00      0.000     0.000    0.0000
  AUG-23-2013 02:23:00      0.000     0.000    0.0000
  AUG-23-2013 02:24:00      0.000     0.000    0.0000
  AUG-23-2013 02:25:00      0.000     0.000    0.0000
  AUG-23-2013 02:26:00      0.000     0.000    0.0000
  AUG-23-2013 02:27:00      0.000     0.000    0.0000
  AUG-23-2013 02:28:00      0.000     0.000    0.0000
  AUG-23-2013 02:29:00      0.000     0.000    0.0000
  AUG-23-2013 02:30:00      0.000     0.000    0.0000
  AUG-23-2013 02:31:00      0.000     0.000    0.0000
  AUG-23-2013 02:32:00      0.000     0.000    0.0000
  AUG-23-2013 02:33:00      0.000     0.000    0.0000
  AUG-23-2013 02:34:00      0.000     0.000    0.0000
  AUG-23-2013 02:35:00      0.000     0.000    0.0000
  AUG-23-2013 02:36:00      0.000     0.000    0.0000
  AUG-23-2013 02:37:00      0.000     0.000    0.0000
  AUG-23-2013 02:38:00      0.000     0.000    0.0000
  AUG-23-2013 02:39:00      0.000     0.000    0.0000
  AUG-23-2013 02:40:00      0.000     0.000    0.0000
  AUG-23-2013 02:41:00      0.000     0.000    0.0000
  AUG-23-2013 02:42:00      0.000     0.000    0.0000
  AUG-23-2013 02:43:00      0.000     0.000    0.0000
  AUG-23-2013 02:44:00      0.000     0.000    0.0000
  AUG-23-2013 02:45:00      0.000     0.000    0.0000
  AUG-23-2013 02:46:00      0.000     0.000    0.0000
  AUG-23-2013 02:47:00      0.000     0.000    0.0000
  AUG-23-2013 02:48:00      0.000     0.000    0.0000
  AUG-23-2013 02:49:00      0.000     0.000    0.0000
  AUG-23-2013 02:50:00      0.000     0.000    0.0000
  AUG-23-2013 02:51:00      0.000     0.000    0.0000
  AUG-23-2013 02:52:00      0.000     0.000    0.0000
  AUG-23-2013 02:53:00      0.000     0.000    0.0000
  AUG-23-2013 02:54:00      0.000     0.000    0.0000
  AUG-23-2013 02:55:00      0.000     0.000    0.0000
  AUG-23-2013 02:56:00      0.000     0.000    0.0000
  AUG-23-2013 02:57:00      0.000     0.000    0.0000
  AUG-23-2013 02:58:00      0.000     0.000    0.0000
  AUG-23-2013 02:59:00      0.000     0.000    0.0000
  AUG-23-2013 03:00:00      0.000     0.000    0.0000
  
  
  <<< Subcatchment C_PMP92903 >>>
  ---------------------------------------------------
  Date        Time        Precip.    Losses    Runoff
                            mm/hr     mm/hr       LPS
  ---------------------------------------------------
  AUG-23-2013 00:01:00      0.000     0.000    0.0000
  AUG-23-2013 00:02:00      0.000     0.000    0.0000
  AUG-23-2013 00:03:00      0.000     0.000    0.0000
  AUG-23-2013 00:04:00      0.000     0.000    0.0000
  AUG-23-2013 00:05:00      0.000     0.000    0.0000
  AUG-23-2013 00:06:00      0.000     0.000    0.0000
  AUG-23-2013 00:07:00      0.000     0.000    0.0000
  AUG-23-2013 00:08:00      0.000     0.000    0.0000
  AUG-23-2013 00:09:00      0.000     0.000    0.0000
  AUG-23-2013 00:10:00      0.000     0.000    0.0000
  AUG-23-2013 00:11:00      0.000     0.000    0.0000
  AUG-23-2013 00:12:00      0.000     0.000    0.0000
  AUG-23-2013 00:13:00      0.000     0.000    0.0000
  AUG-23-2013 00:14:00      0.000     0.000    0.0000
  AUG-23-2013 00:15:00      0.000     0.000    0.0000
  AUG-23-2013 00:16:00      0.000     0.000    0.0000
  AUG-23-2013 00:17:00      0.000     0.000    0.0000
  AUG-23-2013 00:18:00      0.000     0.000    0.0000
  AUG-23-2013 00:19:00      0.000     0.000    0.0000
  AUG-23-2013 00:20:00      0.000     0.000    0.0000
  AUG-23-2013 00:21:00      0.000     0.000    0.0000
  AUG-23-2013 00:22:00      0.000     0.000    0.0000
  AUG-23-2013 00:23:00      0.000     0.000    0.0000
  AUG-23-2013 00:24:00      0.000     0.000    0.0000
  AUG-23-2013 00:25:00      0.000     0.000    0.0000
  AUG-23-2013 00:26:00      0.000     0.000    0.0000
  AUG-23-2013 00:27:00      0.000     0.000    0.0000
  AUG-23-2013 00:28:00      0.000     0.000    0.0000
  AUG-23-2013 00:29:00      0.000     0.000    0.0000
  AUG-23-2013 00:30:00      0.000     0.000    0.0000
  AUG-23-2013 00:31:00      0.000     0.000    0.0000
  AUG-23-2013 00:32:00      0.000     0.000    0.0000
  AUG-23-2013 00:33:00      0.000     0.000    0.0000
  AUG-23-2013 00:34:00      0.000     0.000    0.0000
  AUG-23-2013 00:35:00      0.000     0.000    0.0000
  AUG-23-2013 00:36:00      0.000     0.000    0.0000
  AUG-23-2013 00:37:00      0.000     0.000    0.0000
  AUG-23-2013 00:38:00      0.000     0.000    0.0000
  AUG-23-2013 00:39:00      0.000     0.000    0.0000
  AUG-23-2013 00:40:00      0.000     0.000    0.0000
  AUG-23-2013 00:41:00      0.000     0.000    0.0000
  AUG-23-2013 00:42:00      0.000     0.000    0.0000
  AUG-23-2013 00:43:00      0.000     0.000    0.0000
  AUG-23-2013 00:44:00      0.000     0.000    0.0000
  AUG-23-2013 00:45:00      0.000     0.000    0.0000
  AUG-23-2013 00:46:00      0.000     0.000    0.0000
  AUG-23-2013 00:47:00      0.000     0.000    0.0000
  AUG-23-2013 00:48:00      0.000     0.000    0.0000
  AUG-23-2013 00:49:00      0.000     0.000    0.0000
  AUG-23-2013 00:50:00      0.000     0.000    0.0000
  AUG-23-2013 00:51:00      0.000     0.000    0.0000
  AUG-23-2013 00:52:00      0.000     0.000    0.0000
  AUG-23-2013 00:53:00      0.000     0.000    0.0000
  AUG-23-2013 00:54:00      0.000     0.000    0.0000
  AUG-23-2013 00:55:00      0.000     0.000    0.0000
  AUG-23-2013 00:56:00      0.000     0.000    0.0000
  AUG-23-2013 00:57:00      0.000     0.000    0.0000
  AUG-23-2013 00:58:00      0.000     0.000    0.0000
  AUG-23-2013 00:59:00      0.000     0.000    0.0000
  AUG-23-2013 01:00:00      0.000     0.000    0.0000
  AUG-23-2013 01:01:00      0.000     0.000    0.0000
  AUG-23-2013 01:02:00      0.000     0.000    0.0000
  AUG-23-2013 01:03:00      0.000     0.000    0.0000
  AUG-23-2013 01:04:00      0.000     0.000    0.0000
  AUG-23-2013 01:05:00      0.000     0.000    0.0000
  AUG-23-2013 01:06:00      0.000     0.000    0.0000
  AUG-23-2013 01:07:00      0.000     0.000    0.0000
  AUG-23-2013 01:08:00      0.000     0.000    0.0000
  AUG-23-2013 01:09:00      0.000     0.000    0.0000
  AUG-23-2013 01:10:00      0.000     0.000    0.0000
  AUG-23-2013 01:11:00      0.000     0.000    0.0000
  AUG-23-2013 01:12:00      0.000     0.000    0.0000
  AUG-23-2013 01:13:00      0.000     0.000    0.0000
  AUG-23-2013 01:14:00      0.000     0.000    0.0000
  AUG-23-2013 01:15:00      0.000     0.000    0.0000
  AUG-23-2013 01:16:00      0.000     0.000    0.0000
  AUG-23-2013 01:17:00      0.000     0.000    0.0000
  AUG-23-2013 01:18:00      0.000     0.000    0.0000
  AUG-23-2013 01:19:00      0.000     0.000    0.0000
  AUG-23-2013 01:20:00      0.000     0.000    0.0000
  AUG-23-2013 01:21:00      0.000     0.000    0.0000
  AUG-23-2013 01:22:00      0.000     0.000    0.0000
  AUG-23-2013 01:23:00      0.000     0.000    0.0000
  AUG-23-2013 01:24:00      0.000     0.000    0.0000
  AUG-23-2013 01:25:00      0.000     0.000    0.0000
  AUG-23-2013 01:26:00      0.000     0.000    0.0000
  AUG-23-2013 01:27:00      0.000     0.000    0.0000
[...]
  AUG-23-2013 00:56:00      0.995     0.182     0.026     0.007
  AUG-23-2013 00:57:00      0.995     0.182     0.026     0.007
  AUG-23-2013 00:58:00      0.995     0.182     0.026     0.007
  AUG-23-2013 00:59:00      0.995     0.182     0.026     0.007
  AUG-23-2013 01:00:00      0.994     0.182     0.026     0.007
  AUG-23-2013 01:01:00      0.994     0.182     0.026     0.007
  AUG-23-2013 01:02:00      0.993     0.182     0.026     0.007
  AUG-23-2013 01:03:00      0.992     0.182     0.026     0.007
  AUG-23-2013 01:04:00      0.992     0.182     0.026     0.007
  AUG-23-2013 01:05:00      0.992     0.182     0.026     0.007
  AUG-23-2013 01:06:00      0.992     0.182     0.026     0.007
  AUG-23-2013 01:07:00      0.991     0.182     0.026     0.007
  AUG-23-2013 01:08:00      0.992     0.182     0.026     0.007
  AUG-23-2013 01:09:00      0.992     0.182     0.026     0.007
  AUG-23-2013 01:10:00      0.992     0.182     0.026     0.007
  AUG-23-2013 01:11:00      0.993     0.182     0.026     0.007
  AUG-23-2013 01:12:00      0.993     0.182     0.026     0.007
  AUG-23-2013 01:13:00      0.994     0.183     0.026     0.007
  AUG-23-2013 01:14:00      0.995     0.183     0.026     0.007
  AUG-23-2013 01:15:00      0.996     0.183     0.026     0.007
  AUG-23-2013 01:16:00      0.996     0.183     0.026     0.007
  AUG-23-2013 01:17:00      0.997     0.183     0.026     0.007
  AUG-23-2013 01:18:00      0.998     0.183     0.026     0.007
  AUG-23-2013 01:19:00      0.998     0.183     0.026     0.007
  AUG-23-2013 01:20:00      0.999     0.183     0.026     0.007
  AUG-23-2013 01:21:00      0.999     0.183     0.026     0.007
  AUG-23-2013 01:22:00      0.999     0.183     0.026     0.007
  AUG-23-2013 01:23:00      0.999     0.183     0.026     0.007
  AUG-23-2013 01:24:00      1.000     0.183     0.026     0.007
  AUG-23-2013 01:25:00      1.000     0.183     0.026     0.007
  AUG-23-2013 01:26:00      1.000     0.183     0.026     0.007
  AUG-23-2013 01:27:00      1.000     0.183     0.026     0.007
  AUG-23-2013 01:28:00      1.000     0.183     0.026     0.007
  AUG-23-2013 01:29:00      1.000     0.183     0.026     0.007
  AUG-23-2013 01:30:00      1.000     0.183     0.026     0.007
  AUG-23-2013 01:31:00      1.000     0.183     0.026     0.007
  AUG-23-2013 01:32:00      1.000     0.183     0.026     0.007
  AUG-23-2013 01:33:00      1.000     0.183     0.026     0.007
  AUG-23-2013 01:34:00      1.000     0.183     0.026     0.007
  AUG-23-2013 01:35:00      1.000     0.183     0.026     0.007
  AUG-23-2013 01:36:00      1.000     0.183     0.026     0.007
  AUG-23-2013 01:37:00      1.000     0.183     0.026     0.007
  AUG-23-2013 01:38:00      1.000     0.183     0.026     0.007
  AUG-23-2013 01:39:00      1.000     0.183     0.026     0.007
  AUG-23-2013 01:40:00      1.000     0.183     0.026     0.007
  AUG-23-2013 01:41:00      1.000     0.183     0.026     0.007
  AUG-23-2013 01:42:00      1.000     0.183     0.026     0.007
  AUG-23-2013 01:43:00      1.000     0.183     0.026     0.007
  AUG-23-2013 01:44:00      1.000     0.183     0.026     0.007
  AUG-23-2013 01:45:00      1.000     0.183     0.026     0.007
  AUG-23-2013 01:46:00      1.000     0.183     0.026     0.007
  AUG-23-2013 01:47:00      1.000     0.183     0.026     0.007
  AUG-23-2013 01:48:00      1.000     0.183     0.026     0.007
  AUG-23-2013 01:49:00      1.000     0.183     0.026     0.007
  AUG-23-2013 01:50:00      1.000     0.183     0.026     0.007
  AUG-23-2013 01:51:00      1.000     0.183     0.026     0.007
  AUG-23-2013 01:52:00      1.000     0.183     0.026     0.007
  AUG-23-2013 01:53:00      1.000     0.183     0.026     0.007
  AUG-23-2013 01:54:00      1.000     0.183     0.026     0.007
  AUG-23-2013 01:55:00      1.000     0.183     0.026     0.007
  AUG-23-2013 01:56:00      1.000     0.183     0.026     0.007
  AUG-23-2013 01:57:00      1.000     0.183     0.026     0.007
  AUG-23-2013 01:58:00      1.000     0.183     0.026     0.007
  AUG-23-2013 01:59:00      1.000     0.183     0.026     0.007
  AUG-23-2013 02:00:00      1.000     0.183     0.026     0.007
  AUG-23-2013 02:01:00      1.000     0.183     0.026     0.007
  AUG-23-2013 02:02:00      1.000     0.183     0.026     0.007
  AUG-23-2013 02:03:00      1.000     0.183     0.026     0.007
  AUG-23-2013 02:04:00      1.000     0.183     0.026     0.007
  AUG-23-2013 02:05:00      1.000     0.183     0.026     0.007
  AUG-23-2013 02:06:00      1.000     0.183     0.026     0.007
  AUG-23-2013 02:07:00      1.000     0.183     0.026     0.007
  AUG-23-2013 02:08:00      1.000     0.183     0.026     0.007
  AUG-23-2013 02:09:00      1.000     0.183     0.026     0.007
  AUG-23-2013 02:10:00      1.000     0.183     0.026     0.007
  AUG-23-2013 02:11:00      1.000     0.183     0.026     0.007
  AUG-23-2013 02:12:00      1.000     0.183     0.026     0.007
  AUG-23-2013 02:13:00      1.000     0.183     0.026     0.007
  AUG-23-2013 02:14:00      1.000     0.183     0.026     0.007
  AUG-23-2013 02:15:00      1.000     0.183     0.026     0.007
  AUG-23-2013 02:16:00      1.000     0.183     0.026     0.007
  AUG-23-2013 02:17:00      1.000     0.183     0.026     0.007
  AUG-23-2013 02:18:00      1.000     0.183     0.026     0.007
  AUG-23-2013 02:19:00      1.000     0.183     0.026     0.007
  AUG-23-2013 02:20:00      1.000     0.183     0.026     0.007
  AUG-23-2013 02:21:00      1.000     0.183     0.026     0.007
  AUG-23-2013 02:22:00      1.000     0.183     0.026     0.007
  AUG-23-2013 02:23:00      1.000     0.183     0.026     0.007
  AUG-23-2013 02:24:00      1.000     0.183     0.026     0.007
  AUG-23-2013 02:25:00      1.000     0.183     0.026     0.007
  AUG-23-2013 02:26:00      1.000     0.183     0.026     0.007
  AUG-23-2013 02:27:00      1.000     0.183     0.026     0.007
  AUG-23-2013 02:28:00      1.000     0.183     0.026     0.007
  AUG-23-2013 02:29:00      1.000     0.183     0.026     0.007
  AUG-23-2013 02:30:00      1.000     0.183     0.026     0.007
  AUG-23-2013 02:31:00      1.000     0.183     0.026     0.007
  AUG-23-2013 02:32:00      1.000     0.183     0.026     0.007
  AUG-23-2013 02:33:00      1.000     0.183     0.026     0.007
  AUG-23-2013 02:34:00      1.000     0.183     0.026     0.007
  AUG-23-2013 02:35:00      1.000     0.183     0.026     0.007
  AUG-23-2013 02:36:00      1.000     0.183     0.026     0.007
  AUG-23-2013 02:37:00      1.000     0.183     0.026     0.007
  AUG-23-2013 02:38:00      1.000     0.183     0.026     0.007
  AUG-23-2013 02:39:00      1.000     0.183     0.026     0.007
  AUG-23-2013 02:40:00      1.000     0.183     0.026     0.007
  AUG-23-2013 02:41:00      1.000     0.183     0.026     0.007
  AUG-23-2013 02:42:00      1.000     0.183     0.026     0.007
  AUG-23-2013 02:43:00      1.000     0.183     0.026     0.007
  AUG-23-2013 02:44:00      1.000     0.183     0.026     0.007
  AUG-23-2013 02:45:00      1.000     0.183     0.026     0.007
  AUG-23-2013 02:46:00      1.000     0.183     0.026     0.007
  AUG-23-2013 02:47:00      1.000     0.183     0.026     0.007
  AUG-23-2013 02:48:00      1.000     0.183     0.026     0.007
  AUG-23-2013 02:49:00      1.000     0.183     0.026     0.007
  AUG-23-2013 02:50:00      1.000     0.183     0.026     0.007
  AUG-23-2013 02:51:00      1.000     0.183     0.026     0.007
  AUG-23-2013 02:52:00      1.000     0.183     0.026     0.007
  AUG-23-2013 02:53:00      1.000     0.183     0.026     0.007
  AUG-23-2013 02:54:00      1.000     0.183     0.026     0.007
  AUG-23-2013 02:55:00      1.000     0.183     0.026     0.007
  AUG-23-2013 02:56:00      1.000     0.183     0.026     0.007
  AUG-23-2013 02:57:00      1.000     0.183     0.026     0.007
  AUG-23-2013 02:58:00      1.000     0.183     0.026     0.007
  AUG-23-2013 02:59:00      1.000     0.183     0.026     0.007
  AUG-23-2013 03:00:00      1.000     0.183     0.026     0.007
  
  
  <<< Link PLT85923 >>>
  ----------------------------------------------------------------
                             Flow  Velocity     Depth  Capacity/
  Date        Time            LPS     m/sec    meters   Setting 
  ----------------------------------------------------------------
  AUG-23-2013 00:01:00      0.000     0.000     0.000     0.000
  AUG-23-2013 00:02:00      0.000     0.000     0.000     0.000
  AUG-23-2013 00:03:00      0.000     0.000     0.000     0.000
  AUG-23-2013 00:04:00      0.000     0.000     0.000     0.000
  AUG-23-2013 00:05:00      0.000     0.000     0.000     0.000
  AUG-23-2013 00:06:00      0.000     0.000     0.000     0.000
  AUG-23-2013 00:07:00      0.000     0.000     0.000     0.000
  AUG-23-2013 00:08:00      0.000     0.000     0.000     0.000
  AUG-23-2013 00:09:00      0.000     0.000     0.000     0.000
  AUG-23-2013 00:10:00      0.000     0.000     0.000     0.000
  AUG-23-2013 00:11:00      0.000     0.000     0.000     0.000
  AUG-23-2013 00:12:00      0.000     0.000     0.000     0.000
  AUG-23-2013 00:13:00      0.000     0.000     0.000     0.000
  AUG-23-2013 00:14:00      0.000     0.000     0.000     0.000
  AUG-23-2013 00:15:00      0.000     0.000     0.000     0.000
  AUG-23-2013 00:16:00      0.000     0.000     0.000     0.000
  AUG-23-2013 00:17:00      0.000     0.000     0.000     0.000
  AUG-23-2013 00:18:00      0.000     0.000     0.000     0.000
  AUG-23-2013 00:19:00      0.000     0.000     0.000     0.000
  AUG-23-2013 00:20:00      0.000     0.000     0.000     0.000
  AUG-23-2013 00:21:00      0.000     0.000     0.000     0.000
  AUG-23-2013 00:22:00      0.000     0.000     0.000     0.000
  AUG-23-2013 00:23:00      0.000     0.000     0.000     0.000
  AUG-23-2013 00:24:00      0.000     0.000     0.000     0.000
  AUG-23-2013 00:25:00      0.000     0.000     0.000     0.000
  AUG-23-2013 00:26:00      0.001     0.000     0.000     0.000
  AUG-23-2013 00:27:00      0.001     0.000     0.000     0.000
  AUG-23-2013 00:28:00      0.001     0.000     0.000     0.000
  AUG-23-2013 00:29:00      0.002     0.000     0.000     0.000
  AUG-23-2013 00:30:00      0.002     0.000     0.000     0.000
  AUG-23-2013 00:31:00      0.003     0.000     0.000     0.000
  AUG-23-2013 00:32:00      0.003     0.000     0.000     0.000
  AUG-23-2013 00:33:00      0.004     0.000     0.001     0.000
  AUG-23-2013 00:34:00      0.005     0.000     0.001     0.000
  AUG-23-2013 00:35:00      0.005     0.000     0.001     0.000
  AUG-23-2013 00:36:00      0.006     0.000     0.001     0.000
  AUG-23-2013 00:37:00      0.007     0.000     0.001     0.000
  AUG-23-2013 00:38:00      0.008     0.000     0.001     0.000
  AUG-23-2013 00:39:00      0.010     0.000     0.001     0.000
  AUG-23-2013 00:40:00      0.011     0.000     0.001     0.000
  AUG-23-2013 00:41:00      0.012     0.000     0.001     0.000
  AUG-23-2013 00:42:00      0.014     0.000     0.002     0.000
  AUG-23-2013 00:43:00      0.016     0.000     0.002     0.000
  AUG-23-2013 00:44:00      0.018     0.000     0.002     0.000
  AUG-23-2013 00:45:00      0.020     0.000     0.002     0.000
  AUG-23-2013 00:46:00      0.022     0.000     0.002     0.000
  AUG-23-2013 00:47:00      0.025     0.000     0.003     0.000
  AUG-23-2013 00:48:00      0.028     0.000     0.003     0.000
  AUG-23-2013 00:49:00      0.031     0.063     0.003     0.000
  AUG-23-2013 00:50:00      0.035     0.065     0.003     0.000
  AUG-23-2013 00:51:00      0.039     0.066     0.004     0.000
  AUG-23-2013 00:52:00      0.044     0.067     0.004     0.000
  AUG-23-2013 00:53:00      0.049     0.069     0.004     0.000
  AUG-23-2013 00:54:00      0.055     0.071     0.005     0.001
  AUG-23-2013 00:55:00      0.062     0.072     0.005     0.001
  AUG-23-2013 00:56:00      0.070     0.074     0.005     0.001
  AUG-23-2013 00:57:00      0.078     0.076     0.006     0.001
  AUG-23-2013 00:58:00      0.088     0.078     0.006     0.001
  AUG-23-2013 00:59:00      0.099     0.080     0.007     0.001
  AUG-23-2013 01:00:00      0.112     0.083     0.008     0.001
  AUG-23-2013 01:01:00      0.127     0.085     0.008     0.001
  AUG-23-2013 01:02:00      0.144     0.088     0.009     0.001
  AUG-23-2013 01:03:00      0.163     0.091     0.010     0.001
  AUG-23-2013 01:04:00      0.184     0.093     0.010     0.001
  AUG-23-2013 01:05:00      0.209     0.096     0.011     0.001
  AUG-23-2013 01:06:00      0.236     0.099     0.012     0.002
  AUG-23-2013 01:07:00      0.267     0.103     0.013     0.002
  AUG-23-2013 01:08:00      0.301     0.106     0.014     0.002
  AUG-23-2013 01:09:00      0.339     0.109     0.015     0.002
  AUG-23-2013 01:10:00      0.379     0.113     0.016     0.002
  AUG-23-2013 01:11:00      0.422     0.118     0.017     0.002
  AUG-23-2013 01:12:00      0.469     0.125     0.017     0.002
  AUG-23-2013 01:13:00      0.521     0.132     0.018     0.003
  AUG-23-2013 01:14:00      0.578     0.139     0.019     0.003
  AUG-23-2013 01:15:00      0.639     0.146     0.019     0.003
  AUG-23-2013 01:16:00      0.707     0.152     0.020     0.003
  AUG-23-2013 01:17:00      0.781     0.159     0.021     0.003
  AUG-23-2013 01:18:00      0.859     0.164     0.022     0.003
  AUG-23-2013 01:19:00      0.936     0.169     0.023     0.004
  AUG-23-2013 01:20:00      1.012     0.173     0.024     0.004
  AUG-23-2013 01:21:00      1.086     0.177     0.025     0.004
  AUG-23-2013 01:22:00      1.157     0.180     0.026     0.004
  AUG-23-2013 01:23:00      1.226     0.183     0.026     0.004
  AUG-23-2013 01:24:00      1.293     0.186     0.027     0.005
  AUG-23-2013 01:25:00      1.359     0.189     0.028     0.005
  AUG-23-2013 01:26:00      1.427     0.192     0.028     0.005
  AUG-23-2013 01:27:00      1.492     0.194     0.029     0.005
  AUG-23-2013 01:28:00      1.550     0.196     0.030     0.005
  AUG-23-2013 01:29:00      1.603     0.198     0.030     0.005
  AUG-23-2013 01:30:00      1.650     0.199     0.030     0.005
  AUG-23-2013 01:31:00      1.692     0.201     0.031     0.005
  AUG-23-2013 01:32:00      1.729     0.202     0.031     0.006
  AUG-23-2013 01:33:00      1.763     0.203     0.031     0.006
  AUG-23-2013 01:34:00      1.793     0.204     0.032     0.006
  AUG-23-2013 01:35:00      1.820     0.205     0.032     0.006
  AUG-23-2013 01:36:00      1.843     0.206     0.032     0.006
  AUG-23-2013 01:37:00      1.864     0.206     0.032     0.006
  AUG-23-2013 01:38:00      1.883     0.207     0.032     0.006
  AUG-23-2013 01:39:00      1.899     0.208     0.032     0.006
  AUG-23-2013 01:40:00      1.913     0.208     0.033     0.006
  AUG-23-2013 01:41:00      1.925     0.208     0.033     0.006
  AUG-23-2013 01:42:00      1.936     0.209     0.033     0.006
  AUG-23-2013 01:43:00      1.946     0.209     0.033     0.006
  AUG-23-2013 01:44:00      1.954     0.209     0.033     0.006
  AUG-23-2013 01:45:00      1.961     0.210     0.033     0.006
  AUG-23-2013 01:46:00      1.967     0.210     0.033     0.006
  AUG-23-2013 01:47:00      1.972     0.210     0.033     0.006
  AUG-23-2013 01:48:00      1.977     0.210     0.033     0.006
  AUG-23-2013 01:49:00      1.980     0.210     0.033     0.006
  AUG-23-2013 01:50:00      1.984     0.210     0.033     0.006
  AUG-23-2013 01:51:00      1.986     0.210     0.033     0.006
  AUG-23-2013 01:52:00      1.989     0.211     0.033     0.006
  AUG-23-2013 01:53:00      1.991     0.211     0.033     0.006
  AUG-23-2013 01:54:00      1.992     0.211     0.033     0.006
  AUG-23-2013 01:55:00      1.994     0.211     0.033     0.006
  AUG-23-2013 01:56:00      1.995     0.211     0.033     0.006
  AUG-23-2013 01:57:00      1.996     0.211     0.033     0.006
  AUG-23-2013 01:58:00      1.997     0.211     0.033     0.006
  AUG-23-2013 01:59:00      1.998     0.211     0.033     0.006
  AUG-23-2013 02:00:00      1.998     0.211     0.033     0.006
  AUG-23-2013 02:01:00      1.999     0.211     0.033     0.006
  AUG-23-2013 02:02:00      1.999     0.211     0.033     0.006
  AUG-23-2013 02:03:00      1.999     0.211     0.033     0.006
  AUG-23-2013 02:04:00      1.999     0.211     0.033     0.006
  AUG-23-2013 02:05:00      2.000     0.211     0.033     0.006
  AUG-23-2013 02:06:00      2.000     0.211     0.033     0.006
  AUG-23-2013 02:07:00      2.000     0.211     0.033     0.006
  AUG-23-2013 02:08:00      2.000     0.211     0.033     0.006
  AUG-23-2013 02:09:00      2.000     0.211     0.033     0.006
  AUG-23-2013 02:10:00      2.000     0.211     0.033     0.006
  AUG-23-2013 02:11:00      2.000     0.211     0.033     0.006
  AUG-23-2013 02:12:00      2.000     0.211     0.033     0.006
  AUG-23-2013 02:13:00      2.000     0.211     0.033     0.006
  AUG-23-2013 02:14:00      2.000     0.211     0.033     0.006
  AUG-23-2013 02:15:00      2.000     0.211     0.033     0.006
  AUG-23-2013 02:16:00      2.000     0.211     0.033     0.006
  AUG-23-2013 02:17:00      2.000     0.211     0.033     0.006
  AUG-23-2013 02:18:00      2.000     0.211     0.033     0.006
  AUG-23-2013 02:19:00      2.000     0.211     0.033     0.006
  AUG-23-2013 02:20:00      2.000     0.211     0.033     0.006
  AUG-23-2013 02:21:00      2.000     0.211     0.033     0.006
  AUG-23-2013 02:22:00      2.000     0.211     0.033     0.006
  AUG-23-2013 02:23:00      2.000     0.211     0.033     0.006
  AUG-23-2013 02:24:00      2.000     0.211     0.033     0.006
  AUG-23-2013 02:25:00      2.000     0.211     0.033     0.006
  AUG-23-2013 02:26:00      2.000     0.211     0.033     0.006
  AUG-23-2013 02:27:00      2.000     0.211     0.033     0.006
  AUG-23-2013 02:28:00      2.000     0.211     0.033     0.006
  AUG-23-2013 02:29:00      2.000     0.211     0.033     0.006
  AUG-23-2013 02:30:00      2.000     0.211     0.033     0.006
  AUG-23-2013 02:31:00      2.000     0.211     0.033     0.006
  AUG-23-2013 02:32:00      2.000     0.211     0.033     0.006
  AUG-23-2013 02:33:00      2.000     0.211     0.033     0.006
  AUG-23-2013 02:34:00      2.000     0.211     0.033     0.006
  AUG-23-2013 02:35:00      2.000     0.211     0.033     0.006
  AUG-23-2013 02:36:00      2.000     0.211     0.033     0.006
  AUG-23-2013 02:37:00      2.000     0.211     0.033     0.006
  AUG-23-2013 02:38:00      2.000     0.211     0.033     0.006
  AUG-23-2013 02:39:00      2.000     0.211     0.033     0.006
  AUG-23-2013 02:40:00      2.000     0.211     0.033     0.006
  AUG-23-2013 02:41:00      2.000     0.211     0.033     0.006
  AUG-23-2013 02:42:00      2.000     0.211     0.033     0.006
  AUG-23-2013 02:43:00      2.000     0.211     0.033     0.006
  AUG-23-2013 02:44:00      2.000     0.211     0.033     0.006
  AUG-23-2013 02:45:00      2.000     0.211     0.033     0.006
  AUG-23-2013 02:46:00      2.000     0.211     0.033     0.006
  AUG-23-2013 02:47:00      2.000     0.211     0.033     0.006
  AUG-23-2013 02:48:00      2.000     0.211     0.033     0.006
  AUG-23-2013 02:49:00      2.000     0.211     0.033     0.006
  AUG-23-2013 02:50:00      2.000     0.211     0.033     0.006
  AUG-23-2013 02:51:00      2.000     0.211     0.033     0.006
  AUG-23-2013 02:52:00      2.000     0.211     0.033     0.006
  AUG-23-2013 02:53:00      2.000     0.211     0.033     0.006
  AUG-23-2013 02:54:00      2.000     0.211     0.033     0.006
  AUG-23-2013 02:55:00      2.000     0.211     0.033     0.006
  AUG-23-2013 02:56:00      2.000     0.211     0.033     0.006
  AUG-23-2013 02:57:00      2.000     0.211     0.033     0.006
  AUG-23-2013 02:58:00      2.000     0.211     0.033     0.006
  AUG-23-2013 02:59:00      2.000     0.211     0.033     0.006
  AUG-23-2013 03:00:00      2.000     0.211     0.033     0.006
  

  Analysis begun on:  Wed Jun 17 17:00:07 2015
  Analysis ended on:  Wed Jun 17 17:00:10 2015
  Total elapsed time: 00:00:03