
  EPA STORM WATER MANAGEMENT MODEL - VERSION 5.1 (Build 5.1.006)
  --------------------------------------------------------------

  WARNING 02: maximum depth increased for Node N-9
  WARNING 02: maximum depth increased for Node N-13
  WARNING 02: maximum depth increased for Node N-14
  WARNING 02: maximum depth increased for Node N-15
  
  *********************************************************
  NOTE: The summary statistics displayed in this report are
  based on results found at every computational time step,  
  not just on results from each reporting time step.
  *********************************************************
  
  ****************
  Analysis Options
  ****************
  Flow Units ............... CMS
  Process Models:
    Rainfall/Runoff ........ YES
    RDII ................... NO
    Snowmelt ............... NO
    Groundwater ............ NO
    Flow Routing ........... YES
    Ponding Allowed ........ NO
    Water Quality .......... NO
  Infiltration Method ...... HORTON
  Flow Routing Method ...... DYNWAVE
  Starting Date ............ MAY-03-2014 00:00:00
  Ending Date .............. MAY-03-2014 06:00:00
  Antecedent Dry Days ...... 0.0
  Report Time Step ......... 00:01:00
  Wet Time Step ............ 00:05:00
  Dry Time Step ............ 01:00:00
  Routing Time Step ........ 1.00 sec
  Variable Time Step ....... YES
  Maximum Trials ........... 8
  Head Tolerance ........... 0.004921 m
  
  
  **************************        Volume         Depth
  Runoff Quantity Continuity     hectare-m            mm
  **************************     ---------       -------
  Total Precipitation ......         0.000         0.000
  Evaporation Loss .........         0.000         0.000
  Infiltration Loss ........         0.000         0.000
  Surface Runoff ...........         0.000         0.000
  Final Surface Storage ....         0.000         0.000
  Continuity Error (%) .....         0.000
  
  
  **************************        Volume        Volume
  Flow Routing Continuity        hectare-m      10^6 ltr
  **************************     ---------     ---------
  Dry Weather Inflow .......         0.000         0.000
  Wet Weather Inflow .......         0.000         0.000
  Groundwater Inflow .......         0.000         0.000
  RDII Inflow ..............         0.000         0.000
  External Inflow ..........         1.080        10.799
  External Outflow .........         0.580         5.795
  Internal Outflow .........         0.000         0.000
  Evaporation Loss .........         0.000         0.000
  Seepage Loss .............         0.000         0.000
  Initial Stored Volume ....         0.000         0.001
  Final Stored Volume ......         0.511         5.107
  Continuity Error (%) .....        -0.950
  
  
  *************************
  Highest Continuity Errors
  *************************
  Node N-13 (8.01%)
  Node N-6 (7.87%)
  Node N-7 (6.36%)
  Node N-15 (5.38%)
  Node N-14 (5.16%)
  
  
  ***************************
  Time-Step Critical Elements
  ***************************
  None
  
  
  ********************************
  Highest Flow Instability Indexes
  ********************************
  All links are stable.
  
  
  *************************
  Routing Time Step Summary
  *************************
  Minimum Time Step           :     1.00 sec
  Average Time Step           :     1.00 sec
  Maximum Time Step           :     1.00 sec
  Percent in Steady State     :     0.00
  Average Iterations per Step :     2.00
  Percent Not Converging      :     0.00
  
  
  ***************************
  Subcatchment Runoff Summary
  ***************************
  
  --------------------------------------------------------------------------------------------------------
                            Total      Total      Total      Total      Total       Total     Peak  Runoff
                           Precip      Runon       Evap      Infil     Runoff      Runoff   Runoff   Coeff
  Subcatchment                 mm         mm         mm         mm         mm    10^6 ltr      CMS
  --------------------------------------------------------------------------------------------------------
  C-2                        0.00       0.00       0.00       0.00       0.00        0.00     0.00   0.000
  C-3                        0.00       0.00       0.00       0.00       0.00        0.00     0.00   0.000
  C-4                        0.00       0.00       0.00       0.00       0.00        0.00     0.00   0.000
  C-5                        0.00       0.00       0.00       0.00       0.00        0.00     0.00   0.000
  
  
  ******************
  Node Depth Summary
  ******************
  
  ---------------------------------------------------------------------
                                 Average  Maximum  Maximum  Time of Max
                                   Depth    Depth      HGL   Occurrence
  Node                 Type       Meters   Meters   Meters  days hr:min
  ---------------------------------------------------------------------
  N-5                  JUNCTION     0.09     0.11  2500.11     0  00:47
  N-6                  JUNCTION     0.07     0.09  2499.08     0  01:32
  N-7                  JUNCTION     0.16     0.20  2498.84     0  01:45
  N-9                  JUNCTION     0.20     0.26  2498.26     0  02:20
  N-13                 JUNCTION     0.18     0.24  2498.24     0  02:25
  N-14                 JUNCTION     0.18     0.23  2498.23     0  02:24
  N-15                 JUNCTION     0.19     0.25  2498.25     0  02:22
  DES-1                OUTFALL      0.12     0.23  2492.23     0  06:00
  DES-2                OUTFALL      0.14     0.21  2493.84     0  06:00
  DES-3                OUTFALL      0.13     0.20  2493.33     0  06:00
  V-1                  STORAGE      0.12     0.23  2493.23     0  06:00
  V-2                  STORAGE      0.14     0.21  2494.49     0  06:00
  V-3                  STORAGE      0.13     0.20  2494.48     0  06:00
  
  
  *******************
  Node Inflow Summary
  *******************
  
  -------------------------------------------------------------------------------------------------
                                  Maximum  Maximum                  Lateral       Total        Flow
                                  Lateral    Total  Time of Max      Inflow      Inflow     Balance
                                   Inflow   Inflow   Occurrence      Volume      Volume       Error
  Node                 Type           CMS      CMS  days hr:min    10^6 ltr    10^6 ltr     Percent
  -------------------------------------------------------------------------------------------------
  N-5                  JUNCTION     0.500    0.500     0  00:00        10.8        10.8       6.260
  N-6                  JUNCTION     0.000    0.577     0  01:05           0        10.2       8.544
  N-7                  JUNCTION     0.000    0.540     0  01:32           0        9.36       6.796
  N-9                  JUNCTION     0.000    0.534     0  01:45           0        8.77       2.510
  N-13                 JUNCTION     0.000    0.175     0  01:41           0        2.78       8.707
  N-14                 JUNCTION     0.000    0.201     0  02:09           0         3.3       5.446
  N-15                 JUNCTION     0.000    0.150     0  02:06           0        2.47       5.687
  DES-1                OUTFALL      0.000    0.187     0  06:00           0        1.79       0.000
  DES-2                OUTFALL      0.000    0.160     0  06:00           0        2.15       0.000
  DES-3                OUTFALL      0.000    0.145     0  06:00           0        1.85       0.000
  V-1                  STORAGE      0.000    0.200     0  02:25           0        3.13       2.877
  V-2                  STORAGE      0.000    0.164     0  02:26           0        2.55       1.083
  V-3                  STORAGE      0.000    0.149     0  02:23           0        2.34       2.222
  
  
  **********************
  Node Surcharge Summary
  **********************
  
  No nodes were surcharged.
  
  
  *********************
  Node Flooding Summary
  *********************
  
  No nodes were flooded.
  
  
  **********************
  Storage Volume Summary
  **********************
  
  --------------------------------------------------------------------------------------------------
                         Average     Avg  Evap Infil       Maximum     Max    Time of Max    Maximum
                          Volume    Pcnt  Pcnt  Pcnt        Volume    Pcnt     Occurrence    Outflow
  Storage Unit           1000 m3    Full  Loss  Loss       1000 m3    Full    days hr:min        CMS
  --------------------------------------------------------------------------------------------------
  V-1                      0.675       2     0     0         1.254       5       0  06:00      0.187
  V-2                      0.249       3     0     0         0.376       5       0  06:00      0.160
  V-3                      0.281       3     0     0         0.436       4       0  06:00      0.145
  
  
  ***********************
  Outfall Loading Summary
  ***********************
  
  -----------------------------------------------------------
                         Flow       Avg       Max       Total
                         Freq      Flow      Flow      Volume
  Outfall Node           Pcnt       CMS       CMS    10^6 ltr
  -----------------------------------------------------------
  DES-1                 76.68     0.108     0.187       1.792
  DES-2                 78.07     0.128     0.160       2.150
  DES-3                 78.12     0.110     0.145       1.853
  -----------------------------------------------------------
  System                77.62     0.346     0.492       5.795
  
  
  ********************
  Link Flow Summary
  ********************
  
  -----------------------------------------------------------------------------
                                 Maximum  Time of Max   Maximum    Max/    Max/
                                  |Flow|   Occurrence   |Veloc|    Full    Full
  Link                 Type          CMS  days hr:min     m/sec    Flow   Depth
  -----------------------------------------------------------------------------
  C-1                  CONDUIT     0.577     0  01:05      0.48    0.00    0.02
  C-2                  CONDUIT     0.540     0  01:32      0.42    0.00    0.03
  C-5                  CONDUIT     0.200     0  02:25      1.20    0.05    0.15
  C-6                  CONDUIT     0.164     0  02:26      1.02    0.05    0.15
  C-7                  CONDUIT     0.149     0  02:23      0.94    0.05    0.15
  C-8                  CONDUIT     0.187     0  06:00      1.48    0.14    0.25
  C-9                  CONDUIT     0.160     0  06:00      1.75    0.22    0.32
  C-11                 CONDUIT     0.534     0  01:45      0.87    0.05    0.11
  C-10                 CONDUIT     0.145     0  06:00      1.63    0.17    0.28
  R-4                  ORIFICE     0.201     0  02:09                      0.13
  R-5                  ORIFICE     0.175     0  01:41                      0.13
  R-6                  ORIFICE     0.150     0  02:06                      0.13
  
  
  ***************************
  Flow Classification Summary
  ***************************
  
  -------------------------------------------------------------------------------------
                      Adjusted    ---------- Fraction of Time in Flow Class ---------- 
                       /Actual         Up    Down  Sub   Sup   Up    Down  Norm  Inlet 
  Conduit               Length    Dry  Dry   Dry   Crit  Crit  Crit  Crit  Ltd   Ctrl  
  -------------------------------------------------------------------------------------
  C-1                     1.00   0.00  0.00  0.00  1.00  0.00  0.00  0.00  0.00  0.00
  C-2                     1.00   0.01  0.00  0.00  0.99  0.00  0.00  0.00  0.84  0.00
  C-5                     1.00   0.11  0.00  0.00  0.00  0.00  0.00  0.89  0.00  0.00
  C-6                     1.00   0.11  0.00  0.00  0.00  0.00  0.00  0.89  0.00  0.00
  C-7                     1.00   0.11  0.00  0.00  0.00  0.00  0.00  0.89  0.00  0.00
  C-8                     1.00   0.18  0.00  0.00  0.09  0.73  0.00  0.00  0.00  0.00
  C-9                     1.00   0.17  0.00  0.00  0.05  0.78  0.00  0.00  0.00  0.00
  C-11                    1.00   0.04  0.00  0.00  0.96  0.00  0.00  0.00  0.74  0.00
  C-10                    1.00   0.17  0.00  0.00  0.05  0.78  0.00  0.00  0.00  0.00
  
  
  *************************
  Conduit Surcharge Summary
  *************************
  
  No conduits were surcharged.
  
  
  ********************
  Subcatchment Results
  ********************
  
  <<< Subcatchment C-2 >>>
  ---------------------------------------------------
  Date        Time        Precip.    Losses    Runoff
                            mm/hr     mm/hr       CMS
  ---------------------------------------------------
  MAY-03-2014 00:01:00      0.000     0.000    0.0000
  MAY-03-2014 00:02:00      0.000     0.000    0.0000
  MAY-03-2014 00:03:00      0.000     0.000    0.0000
  MAY-03-2014 00:04:00      0.000     0.000    0.0000
  MAY-03-2014 00:05:00      0.000     0.000    0.0000
  MAY-03-2014 00:06:00      0.000     0.000    0.0000
  MAY-03-2014 00:07:00      0.000     0.000    0.0000
  MAY-03-2014 00:08:00      0.000     0.000    0.0000
  MAY-03-2014 00:09:00      0.000     0.000    0.0000
  MAY-03-2014 00:10:00      0.000     0.000    0.0000
  MAY-03-2014 00:11:00      0.000     0.000    0.0000
  MAY-03-2014 00:12:00      0.000     0.000    0.0000
  MAY-03-2014 00:13:00      0.000     0.000    0.0000
  MAY-03-2014 00:14:00      0.000     0.000    0.0000
  MAY-03-2014 00:15:00      0.000     0.000    0.0000
  MAY-03-2014 00:16:00      0.000     0.000    0.0000
  MAY-03-2014 00:17:00      0.000     0.000    0.0000
  MAY-03-2014 00:18:00      0.000     0.000    0.0000
  MAY-03-2014 00:19:00      0.000     0.000    0.0000
  MAY-03-2014 00:20:00      0.000     0.000    0.0000
  MAY-03-2014 00:21:00      0.000     0.000    0.0000
  MAY-03-2014 00:22:00      0.000     0.000    0.0000
  MAY-03-2014 00:23:00      0.000     0.000    0.0000
  MAY-03-2014 00:24:00      0.000     0.000    0.0000
  MAY-03-2014 00:25:00      0.000     0.000    0.0000
  MAY-03-2014 00:26:00      0.000     0.000    0.0000
  MAY-03-2014 00:27:00      0.000     0.000    0.0000
  MAY-03-2014 00:28:00      0.000     0.000    0.0000
  MAY-03-2014 00:29:00      0.000     0.000    0.0000
  MAY-03-2014 00:30:00      0.000     0.000    0.0000
  MAY-03-2014 00:31:00      0.000     0.000    0.0000
  MAY-03-2014 00:32:00      0.000     0.000    0.0000
  MAY-03-2014 00:33:00      0.000     0.000    0.0000
  MAY-03-2014 00:34:00      0.000     0.000    0.0000
  MAY-03-2014 00:35:00      0.000     0.000    0.0000
  MAY-03-2014 00:36:00      0.000     0.000    0.0000
  MAY-03-2014 00:37:00      0.000     0.000    0.0000
  MAY-03-2014 00:38:00      0.000     0.000    0.0000
  MAY-03-2014 00:39:00      0.000     0.000    0.0000
  MAY-03-2014 00:40:00      0.000     0.000    0.0000
  MAY-03-2014 00:41:00      0.000     0.000    0.0000
  MAY-03-2014 00:42:00      0.000     0.000    0.0000
  MAY-03-2014 00:43:00      0.000     0.000    0.0000
  MAY-03-2014 00:44:00      0.000     0.000    0.0000
  MAY-03-2014 00:45:00      0.000     0.000    0.0000
  MAY-03-2014 00:46:00      0.000     0.000    0.0000
  MAY-03-2014 00:47:00      0.000     0.000    0.0000
  MAY-03-2014 00:48:00      0.000     0.000    0.0000
  MAY-03-2014 00:49:00      0.000     0.000    0.0000
  MAY-03-2014 00:50:00      0.000     0.000    0.0000
  MAY-03-2014 00:51:00      0.000     0.000    0.0000
  MAY-03-2014 00:52:00      0.000     0.000    0.0000
  MAY-03-2014 00:53:00      0.000     0.000    0.0000
  MAY-03-2014 00:54:00      0.000     0.000    0.0000
  MAY-03-2014 00:55:00      0.000     0.000    0.0000
  MAY-03-2014 00:56:00      0.000     0.000    0.0000
  MAY-03-2014 00:57:00      0.000     0.000    0.0000
  MAY-03-2014 00:58:00      0.000     0.000    0.0000
  MAY-03-2014 00:59:00      0.000     0.000    0.0000
  MAY-03-2014 01:00:00      0.000     0.000    0.0000
  MAY-03-2014 01:01:00      0.000     0.000    0.0000
  MAY-03-2014 01:02:00      0.000     0.000    0.0000
  MAY-03-2014 01:03:00      0.000     0.000    0.0000
  MAY-03-2014 01:04:00      0.000     0.000    0.0000
  MAY-03-2014 01:05:00      0.000     0.000    0.0000
  MAY-03-2014 01:06:00      0.000     0.000    0.0000
  MAY-03-2014 01:07:00      0.000     0.000    0.0000
  MAY-03-2014 01:08:00      0.000     0.000    0.0000
  MAY-03-2014 01:09:00      0.000     0.000    0.0000
  MAY-03-2014 01:10:00      0.000     0.000    0.0000
  MAY-03-2014 01:11:00      0.000     0.000    0.0000
  MAY-03-2014 01:12:00      0.000     0.000    0.0000
  MAY-03-2014 01:13:00      0.000     0.000    0.0000
  MAY-03-2014 01:14:00      0.000     0.000    0.0000
  MAY-03-2014 01:15:00      0.000     0.000    0.0000
  MAY-03-2014 01:16:00      0.000     0.000    0.0000
  MAY-03-2014 01:17:00      0.000     0.000    0.0000
  MAY-03-2014 01:18:00      0.000     0.000    0.0000
  MAY-03-2014 01:19:00      0.000     0.000    0.0000
  MAY-03-2014 01:20:00      0.000     0.000    0.0000
  MAY-03-2014 01:21:00      0.000     0.000    0.0000
  MAY-03-2014 01:22:00      0.000     0.000    0.0000
  MAY-03-2014 01:23:00      0.000     0.000    0.0000
  MAY-03-2014 01:24:00      0.000     0.000    0.0000
  MAY-03-2014 01:25:00      0.000     0.000    0.0000
  MAY-03-2014 01:26:00      0.000     0.000    0.0000
  MAY-03-2014 01:27:00      0.000     0.000    0.0000
  MAY-03-2014 01:28:00      0.000     0.000    0.0000
  MAY-03-2014 01:29:00      0.000     0.000    0.0000
  MAY-03-2014 01:30:00      0.000     0.000    0.0000
  MAY-03-2014 01:31:00      0.000     0.000    0.0000
  MAY-03-2014 01:32:00      0.000     0.000    0.0000
  MAY-03-2014 01:33:00      0.000     0.000    0.0000
  MAY-03-2014 01:34:00      0.000     0.000    0.0000
  MAY-03-2014 01:35:00      0.000     0.000    0.0000
  MAY-03-2014 01:36:00      0.000     0.000    0.0000
  MAY-03-2014 01:37:00      0.000     0.000    0.0000
  MAY-03-2014 01:38:00      0.000     0.000    0.0000
  MAY-03-2014 01:39:00      0.000     0.000    0.0000
  MAY-03-2014 01:40:00      0.000     0.000    0.0000
  MAY-03-2014 01:41:00      0.000     0.000    0.0000
  MAY-03-2014 01:42:00      0.000     0.000    0.0000
  MAY-03-2014 01:43:00      0.000     0.000    0.0000
  MAY-03-2014 01:44:00      0.000     0.000    0.0000
  MAY-03-2014 01:45:00      0.000     0.000    0.0000
  MAY-03-2014 01:46:00      0.000     0.000    0.0000
  MAY-03-2014 01:47:00      0.000     0.000    0.0000
  MAY-03-2014 01:48:00      0.000     0.000    0.0000
  MAY-03-2014 01:49:00      0.000     0.000    0.0000
  MAY-03-2014 01:50:00      0.000     0.000    0.0000
  MAY-03-2014 01:51:00      0.000     0.000    0.0000
  MAY-03-2014 01:52:00      0.000     0.000    0.0000
  MAY-03-2014 01:53:00      0.000     0.000    0.0000
  MAY-03-2014 01:54:00      0.000     0.000    0.0000
  MAY-03-2014 01:55:00      0.000     0.000    0.0000
  MAY-03-2014 01:56:00      0.000     0.000    0.0000
  MAY-03-2014 01:57:00      0.000     0.000    0.0000
  MAY-03-2014 01:58:00      0.000     0.000    0.0000
  MAY-03-2014 01:59:00      0.000     0.000    0.0000
  MAY-03-2014 02:00:00      0.000     0.000    0.0000
  MAY-03-2014 02:01:00      0.000     0.000    0.0000
  MAY-03-2014 02:02:00      0.000     0.000    0.0000
  MAY-03-2014 02:03:00      0.000     0.000    0.0000
  MAY-03-2014 02:04:00      0.000     0.000    0.0000
  MAY-03-2014 02:05:00      0.000     0.000    0.0000
  MAY-03-2014 02:06:00      0.000     0.000    0.0000
  MAY-03-2014 02:07:00      0.000     0.000    0.0000
  MAY-03-2014 02:08:00      0.000     0.000    0.0000
  MAY-03-2014 02:09:00      0.000     0.000    0.0000
  MAY-03-2014 02:10:00      0.000     0.000    0.0000
  MAY-03-2014 02:11:00      0.000     0.000    0.0000
  MAY-03-2014 02:12:00      0.000     0.000    0.0000
  MAY-03-2014 02:13:00      0.000     0.000    0.0000
  MAY-03-2014 02:14:00      0.000     0.000    0.0000
  MAY-03-2014 02:15:00      0.000     0.000    0.0000
  MAY-03-2014 02:16:00      0.000     0.000    0.0000
  MAY-03-2014 02:17:00      0.000     0.000    0.0000
  MAY-03-2014 02:18:00      0.000     0.000    0.0000
  MAY-03-2014 02:19:00      0.000     0.000    0.0000
  MAY-03-2014 02:20:00      0.000     0.000    0.0000
  MAY-03-2014 02:21:00      0.000     0.000    0.0000
  MAY-03-2014 02:22:00      0.000     0.000    0.0000
  MAY-03-2014 02:23:00      0.000     0.000    0.0000
  MAY-03-2014 02:24:00      0.000     0.000    0.0000
  MAY-03-2014 02:25:00      0.000     0.000    0.0000
  MAY-03-2014 02:26:00      0.000     0.000    0.0000
  MAY-03-2014 02:27:00      0.000     0.000    0.0000
  MAY-03-2014 02:28:00      0.000     0.000    0.0000
  MAY-03-2014 02:29:00      0.000     0.000    0.0000
  MAY-03-2014 02:30:00      0.000     0.000    0.0000
  MAY-03-2014 02:31:00      0.000     0.000    0.0000
  MAY-03-2014 02:32:00      0.000     0.000    0.0000
  MAY-03-2014 02:33:00      0.000     0.000    0.0000
  MAY-03-2014 02:34:00      0.000     0.000    0.0000
  MAY-03-2014 02:35:00      0.000     0.000    0.0000
  MAY-03-2014 02:36:00      0.000     0.000    0.0000
  MAY-03-2014 02:37:00      0.000     0.000    0.0000
  MAY-03-2014 02:38:00      0.000     0.000    0.0000
  MAY-03-2014 02:39:00      0.000     0.000    0.0000
  MAY-03-2014 02:40:00      0.000     0.000    0.0000
  MAY-03-2014 02:41:00      0.000     0.000    0.0000
  MAY-03-2014 02:42:00      0.000     0.000    0.0000
  MAY-03-2014 02:43:00      0.000     0.000    0.0000
  MAY-03-2014 02:44:00      0.000     0.000    0.0000
  MAY-03-2014 02:45:00      0.000     0.000    0.0000
  MAY-03-2014 02:46:00      0.000     0.000    0.0000
  MAY-03-2014 02:47:00      0.000     0.000    0.0000
  MAY-03-2014 02:48:00      0.000     0.000    0.0000
  MAY-03-2014 02:49:00      0.000     0.000    0.0000
  MAY-03-2014 02:50:00      0.000     0.000    0.0000
  MAY-03-2014 02:51:00      0.000     0.000    0.0000
  MAY-03-2014 02:52:00      0.000     0.000    0.0000
  MAY-03-2014 02:53:00      0.000     0.000    0.0000
  MAY-03-2014 02:54:00      0.000     0.000    0.0000
  MAY-03-2014 02:55:00      0.000     0.000    0.0000
  MAY-03-2014 02:56:00      0.000     0.000    0.0000
  MAY-03-2014 02:57:00      0.000     0.000    0.0000
  MAY-03-2014 02:58:00      0.000     0.000    0.0000
  MAY-03-2014 02:59:00      0.000     0.000    0.0000
  MAY-03-2014 03:00:00      0.000     0.000    0.0000
  MAY-03-2014 03:01:00      0.000     0.000    0.0000
  MAY-03-2014 03:02:00      0.000     0.000    0.0000
  MAY-03-2014 03:03:00      0.000     0.000    0.0000
  MAY-03-2014 03:04:00      0.000     0.000    0.0000
  MAY-03-2014 03:05:00      0.000     0.000    0.0000
  MAY-03-2014 03:06:00      0.000     0.000    0.0000
  MAY-03-2014 03:07:00      0.000     0.000    0.0000
  MAY-03-2014 03:08:00      0.000     0.000    0.0000
  MAY-03-2014 03:09:00      0.000     0.000    0.0000
  MAY-03-2014 03:10:00      0.000     0.000    0.0000
  MAY-03-2014 03:11:00      0.000     0.000    0.0000
  MAY-03-2014 03:12:00      0.000     0.000    0.0000
  MAY-03-2014 03:13:00      0.000     0.000    0.0000
  MAY-03-2014 03:14:00      0.000     0.000    0.0000
  MAY-03-2014 03:15:00      0.000     0.000    0.0000
  MAY-03-2014 03:16:00      0.000     0.000    0.0000
  MAY-03-2014 03:17:00      0.000     0.000    0.0000
  MAY-03-2014 03:18:00      0.000     0.000    0.0000
  MAY-03-2014 03:19:00      0.000     0.000    0.0000
  MAY-03-2014 03:20:00      0.000     0.000    0.0000
  MAY-03-2014 03:21:00      0.000     0.000    0.0000
  MAY-03-2014 03:22:00      0.000     0.000    0.0000
  MAY-03-2014 03:23:00      0.000     0.000    0.0000
  MAY-03-2014 03:24:00      0.000     0.000    0.0000
  MAY-03-2014 03:25:00      0.000     0.000    0.0000
  MAY-03-2014 03:26:00      0.000     0.000    0.0000
  MAY-03-2014 03:27:00      0.000     0.000    0.0000
  MAY-03-2014 03:28:00      0.000     0.000    0.0000
  MAY-03-2014 03:29:00      0.000     0.000    0.0000
  MAY-03-2014 03:30:00      0.000     0.000    0.0000
  MAY-03-2014 03:31:00      0.000     0.000    0.0000
  MAY-03-2014 03:32:00      0.000     0.000    0.0000
  MAY-03-2014 03:33:00      0.000     0.000    0.0000
  MAY-03-2014 03:34:00      0.000     0.000    0.0000
  MAY-03-2014 03:35:00      0.000     0.000    0.0000
  MAY-03-2014 03:36:00      0.000     0.000    0.0000
  MAY-03-2014 03:37:00      0.000     0.000    0.0000
  MAY-03-2014 03:38:00      0.000     0.000    0.0000
  MAY-03-2014 03:39:00      0.000     0.000    0.0000
  MAY-03-2014 03:40:00      0.000     0.000    0.0000
  MAY-03-2014 03:41:00      0.000     0.000    0.0000
  MAY-03-2014 03:42:00      0.000     0.000    0.0000
  MAY-03-2014 03:43:00      0.000     0.000    0.0000
  MAY-03-2014 03:44:00      0.000     0.000    0.0000
  MAY-03-2014 03:45:00      0.000     0.000    0.0000
  MAY-03-2014 03:46:00      0.000     0.000    0.0000
  MAY-03-2014 03:47:00      0.000     0.000    0.0000
  MAY-03-2014 03:48:00      0.000     0.000    0.0000
  MAY-03-2014 03:49:00      0.000     0.000    0.0000
  MAY-03-2014 03:50:00      0.000     0.000    0.0000
  MAY-03-2014 03:51:00      0.000     0.000    0.0000
  MAY-03-2014 03:52:00      0.000     0.000    0.0000
  MAY-03-2014 03:53:00      0.000     0.000    0.0000
  MAY-03-2014 03:54:00      0.000     0.000    0.0000
  MAY-03-2014 03:55:00      0.000     0.000    0.0000
  MAY-03-2014 03:56:00      0.000     0.000    0.0000
  MAY-03-2014 03:57:00      0.000     0.000    0.0000
  MAY-03-2014 03:58:00      0.000     0.000    0.0000
  MAY-03-2014 03:59:00      0.000     0.000    0.0000
  MAY-03-2014 04:00:00      0.000     0.000    0.0000
  MAY-03-2014 04:01:00      0.000     0.000    0.0000
  MAY-03-2014 04:02:00      0.000     0.000    0.0000
  MAY-03-2014 04:03:00      0.000     0.000    0.0000
  MAY-03-2014 04:04:00      0.000     0.000    0.0000
  MAY-03-2014 04:05:00      0.000     0.000    0.0000
  MAY-03-2014 04:06:00      0.000     0.000    0.0000
  MAY-03-2014 04:07:00      0.000     0.000    0.0000
  MAY-03-2014 04:08:00      0.000     0.000    0.0000
  MAY-03-2014 04:09:00      0.000     0.000    0.0000
  MAY-03-2014 04:10:00      0.000     0.000    0.0000
  MAY-03-2014 04:11:00      0.000     0.000    0.0000
  MAY-03-2014 04:12:00      0.000     0.000    0.0000
  MAY-03-2014 04:13:00      0.000     0.000    0.0000
  MAY-03-2014 04:14:00      0.000     0.000    0.0000
  MAY-03-2014 04:15:00      0.000     0.000    0.0000
  MAY-03-2014 04:16:00      0.000     0.000    0.0000
  MAY-03-2014 04:17:00      0.000     0.000    0.0000
  MAY-03-2014 04:18:00      0.000     0.000    0.0000
  MAY-03-2014 04:19:00      0.000     0.000    0.0000
  MAY-03-2014 04:20:00      0.000     0.000    0.0000
  MAY-03-2014 04:21:00      0.000     0.000    0.0000
  MAY-03-2014 04:22:00      0.000     0.000    0.0000
  MAY-03-2014 04:23:00      0.000     0.000    0.0000
  MAY-03-2014 04:24:00      0.000     0.000    0.0000
  MAY-03-2014 04:25:00      0.000     0.000    0.0000
  MAY-03-2014 04:26:00      0.000     0.000    0.0000
  MAY-03-2014 04:27:00      0.000     0.000    0.0000
  MAY-03-2014 04:28:00      0.000     0.000    0.0000
  MAY-03-2014 04:29:00      0.000     0.000    0.0000
  MAY-03-2014 04:30:00      0.000     0.000    0.0000
  MAY-03-2014 04:31:00      0.000     0.000    0.0000
  MAY-03-2014 04:32:00      0.000     0.000    0.0000
  MAY-03-2014 04:33:00      0.000     0.000    0.0000
  MAY-03-2014 04:34:00      0.000     0.000    0.0000
  MAY-03-2014 04:35:00      0.000     0.000    0.0000
  MAY-03-2014 04:36:00      0.000     0.000    0.0000
  MAY-03-2014 04:37:00      0.000     0.000    0.0000
  MAY-03-2014 04:38:00      0.000     0.000    0.0000
  MAY-03-2014 04:39:00      0.000     0.000    0.0000
  MAY-03-2014 04:40:00      0.000     0.000    0.0000
  MAY-03-2014 04:41:00      0.000     0.000    0.0000
  MAY-03-2014 04:42:00      0.000     0.000    0.0000
  MAY-03-2014 04:43:00      0.000     0.000    0.0000
  MAY-03-2014 04:44:00      0.000     0.000    0.0000
  MAY-03-2014 04:45:00      0.000     0.000    0.0000
  MAY-03-2014 04:46:00      0.000     0.000    0.0000
  MAY-03-2014 04:47:00      0.000     0.000    0.0000
  MAY-03-2014 04:48:00      0.000     0.000    0.0000
  MAY-03-2014 04:49:00      0.000     0.000    0.0000
  MAY-03-2014 04:50:00      0.000     0.000    0.0000
  MAY-03-2014 04:51:00      0.000     0.000    0.0000
  MAY-03-2014 04:52:00      0.000     0.000    0.0000
  MAY-03-2014 04:53:00      0.000     0.000    0.0000
  MAY-03-2014 04:54:00      0.000     0.000    0.0000
  MAY-03-2014 04:55:00      0.000     0.000    0.0000
  MAY-03-2014 04:56:00      0.000     0.000    0.0000
  MAY-03-2014 04:57:00      0.000     0.000    0.0000
  MAY-03-2014 04:58:00      0.000     0.000    0.0000
  MAY-03-2014 04:59:00      0.000     0.000    0.0000
  MAY-03-2014 05:00:00      0.000     0.000    0.0000
  MAY-03-2014 05:01:00      0.000     0.000    0.0000
  MAY-03-2014 05:02:00      0.000     0.000    0.0000
  MAY-03-2014 05:03:00      0.000     0.000    0.0000
  MAY-03-2014 05:04:00      0.000     0.000    0.0000
  MAY-03-2014 05:05:00      0.000     0.000    0.0000
  MAY-03-2014 05:06:00      0.000     0.000    0.0000
  MAY-03-2014 05:07:00      0.000     0.000    0.0000
  MAY-03-2014 05:08:00      0.000     0.000    0.0000
  MAY-03-2014 05:09:00      0.000     0.000    0.0000
  MAY-03-2014 05:10:00      0.000     0.000    0.0000
  MAY-03-2014 05:11:00      0.000     0.000    0.0000
  MAY-03-2014 05:12:00      0.000     0.000    0.0000
  MAY-03-2014 05:13:00      0.000     0.000    0.0000
  MAY-03-2014 05:14:00      0.000     0.000    0.0000
  MAY-03-2014 05:15:00      0.000     0.000    0.0000
  MAY-03-2014 05:16:00      0.000     0.000    0.0000
  MAY-03-2014 05:17:00      0.000     0.000    0.0000
  MAY-03-2014 05:18:00      0.000     0.000    0.0000
  MAY-03-2014 05:19:00      0.000     0.000    0.0000
  MAY-03-2014 05:20:00      0.000     0.000    0.0000
  MAY-03-2014 05:21:00      0.000     0.000    0.0000
  MAY-03-2014 05:22:00      0.000     0.000    0.0000
  MAY-03-2014 05:23:00      0.000     0.000    0.0000
  MAY-03-2014 05:24:00      0.000     0.000    0.0000
  MAY-03-2014 05:25:00      0.000     0.000    0.0000
  MAY-03-2014 05:26:00      0.000     0.000    0.0000
  MAY-03-2014 05:27:00      0.000     0.000    0.0000
  MAY-03-2014 05:28:00      0.000     0.000    0.0000
  MAY-03-2014 05:29:00      0.000     0.000    0.0000
  MAY-03-2014 05:30:00      0.000     0.000    0.0000
  MAY-03-2014 05:31:00      0.000     0.000    0.0000
  MAY-03-2014 05:32:00      0.000     0.000    0.0000
  MAY-03-2014 05:33:00      0.000     0.000    0.0000
  MAY-03-2014 05:34:00      0.000     0.000    0.0000
  MAY-03-2014 05:35:00      0.000     0.000    0.0000
  MAY-03-2014 05:36:00      0.000     0.000    0.0000
  MAY-03-2014 05:37:00      0.000     0.000    0.0000
  MAY-03-2014 05:38:00      0.000     0.000    0.0000
  MAY-03-2014 05:39:00      0.000     0.000    0.0000
  MAY-03-2014 05:40:00      0.000     0.000    0.0000
  MAY-03-2014 05:41:00      0.000     0.000    0.0000
  MAY-03-2014 05:42:00      0.000     0.000    0.0000
  MAY-03-2014 05:43:00      0.000     0.000    0.0000
  MAY-03-2014 05:44:00      0.000     0.000    0.0000
  MAY-03-2014 05:45:00      0.000     0.000    0.0000
  MAY-03-2014 05:46:00      0.000     0.000    0.0000
  MAY-03-2014 05:47:00      0.000     0.000    0.0000
  MAY-03-2014 05:48:00      0.000     0.000    0.0000
  MAY-03-2014 05:49:00      0.000     0.000    0.0000
  MAY-03-2014 05:50:00      0.000     0.000    0.0000
  MAY-03-2014 05:51:00      0.000     0.000    0.0000
  MAY-03-2014 05:52:00      0.000     0.000    0.0000
  MAY-03-2014 05:53:00      0.000     0.000    0.0000
  MAY-03-2014 05:54:00      0.000     0.000    0.0000
  MAY-03-2014 05:55:00      0.000     0.000    0.0000
  MAY-03-2014 05:56:00      0.000     0.000    0.0000
  MAY-03-2014 05:57:00      0.000     0.000    0.0000
  MAY-03-2014 05:58:00      0.000     0.000    0.0000
  MAY-03-2014 05:59:00      0.000     0.000    0.0000
  MAY-03-2014 06:00:00      0.000     0.000    0.0000
  
  
  <<< Subcatchment C-3 >>>
  ---------------------------------------------------
  Date        Time        Precip.    Losses    Runoff
                            mm/hr     mm/hr       CMS
  ---------------------------------------------------
  MAY-03-2014 00:01:00      0.000     0.000    0.0000
  MAY-03-2014 00:02:00      0.000     0.000    0.0000
  MAY-03-2014 00:03:00      0.000     0.000    0.0000
  MAY-03-2014 00:04:00      0.000     0.000    0.0000
  MAY-03-2014 00:05:00      0.000     0.000    0.0000
  MAY-03-2014 00:06:00      0.000     0.000    0.0000
  MAY-03-2014 00:07:00      0.000     0.000    0.0000
  MAY-03-2014 00:08:00      0.000     0.000    0.0000
  MAY-03-2014 00:09:00      0.000     0.000    0.0000
  MAY-03-2014 00:10:00      0.000     0.000    0.0000
  MAY-03-2014 00:11:00      0.000     0.000    0.0000
  MAY-03-2014 00:12:00      0.000     0.000    0.0000
  MAY-03-2014 00:13:00      0.000     0.000    0.0000
  MAY-03-2014 00:14:00      0.000     0.000    0.0000
  MAY-03-2014 00:15:00      0.000     0.000    0.0000
  MAY-03-2014 00:16:00      0.000     0.000    0.0000
  MAY-03-2014 00:17:00      0.000     0.000    0.0000
  MAY-03-2014 00:18:00      0.000     0.000    0.0000
  MAY-03-2014 00:19:00      0.000     0.000    0.0000
  MAY-03-2014 00:20:00      0.000     0.000    0.0000
  MAY-03-2014 00:21:00      0.000     0.000    0.0000
  MAY-03-2014 00:22:00      0.000     0.000    0.0000
  MAY-03-2014 00:23:00      0.000     0.000    0.0000
  MAY-03-2014 00:24:00      0.000     0.000    0.0000
  MAY-03-2014 00:25:00      0.000     0.000    0.0000
  MAY-03-2014 00:26:00      0.000     0.000    0.0000
  MAY-03-2014 00:27:00      0.000     0.000    0.0000
  MAY-03-2014 00:28:00      0.000     0.000    0.0000
  MAY-03-2014 00:29:00      0.000     0.000    0.0000
  MAY-03-2014 00:30:00      0.000     0.000    0.0000
  MAY-03-2014 00:31:00      0.000     0.000    0.0000
  MAY-03-2014 00:32:00      0.000     0.000    0.0000
  MAY-03-2014 00:33:00      0.000     0.000    0.0000
  MAY-03-2014 00:34:00      0.000     0.000    0.0000
  MAY-03-2014 00:35:00      0.000     0.000    0.0000
  MAY-03-2014 00:36:00      0.000     0.000    0.0000
  MAY-03-2014 00:37:00      0.000     0.000    0.0000
  MAY-03-2014 00:38:00      0.000     0.000    0.0000
  MAY-03-2014 00:39:00      0.000     0.000    0.0000
  MAY-03-2014 00:40:00      0.000     0.000    0.0000
  MAY-03-2014 00:41:00      0.000     0.000    0.0000
  MAY-03-2014 00:42:00      0.000     0.000    0.0000
  MAY-03-2014 00:43:00      0.000     0.000    0.0000
  MAY-03-2014 00:44:00      0.000     0.000    0.0000
  MAY-03-2014 00:45:00      0.000     0.000    0.0000
  MAY-03-2014 00:46:00      0.000     0.000    0.0000
  MAY-03-2014 00:47:00      0.000     0.000    0.0000
  MAY-03-2014 00:48:00      0.000     0.000    0.0000
  MAY-03-2014 00:49:00      0.000     0.000    0.0000
  MAY-03-2014 00:50:00      0.000     0.000    0.0000
  MAY-03-2014 00:51:00      0.000     0.000    0.0000
  MAY-03-2014 00:52:00      0.000     0.000    0.0000
  MAY-03-2014 00:53:00      0.000     0.000    0.0000
  MAY-03-2014 00:54:00      0.000     0.000    0.0000
  MAY-03-2014 00:55:00      0.000     0.000    0.0000
  MAY-03-2014 00:56:00      0.000     0.000    0.0000
  MAY-03-2014 00:57:00      0.000     0.000    0.0000
  MAY-03-2014 00:58:00      0.000     0.000    0.0000
  MAY-03-2014 00:59:00      0.000     0.000    0.0000
  MAY-03-2014 01:00:00      0.000     0.000    0.0000
  MAY-03-2014 01:01:00      0.000     0.000    0.0000
  MAY-03-2014 01:02:00      0.000     0.000    0.0000
  MAY-03-2014 01:03:00      0.000     0.000    0.0000
  MAY-03-2014 01:04:00      0.000     0.000    0.0000
  MAY-03-2014 01:05:00      0.000     0.000    0.0000
  MAY-03-2014 01:06:00      0.000     0.000    0.0000
  MAY-03-2014 01:07:00      0.000     0.000    0.0000
  MAY-03-2014 01:08:00      0.000     0.000    0.0000
  MAY-03-2014 01:09:00      0.000     0.000    0.0000
  MAY-03-2014 01:10:00      0.000     0.000    0.0000
  MAY-03-2014 01:11:00      0.000     0.000    0.0000
  MAY-03-2014 01:12:00      0.000     0.000    0.0000
  MAY-03-2014 01:13:00      0.000     0.000    0.0000
  MAY-03-2014 01:14:00      0.000     0.000    0.0000
  MAY-03-2014 01:15:00      0.000     0.000    0.0000
  MAY-03-2014 01:16:00      0.000     0.000    0.0000
  MAY-03-2014 01:17:00      0.000     0.000    0.0000
  MAY-03-2014 01:18:00      0.000     0.000    0.0000
  MAY-03-2014 01:19:00      0.000     0.000    0.0000
  MAY-03-2014 01:20:00      0.000     0.000    0.0000
  MAY-03-2014 01:21:00      0.000     0.000    0.0000
  MAY-03-2014 01:22:00      0.000     0.000    0.0000
  MAY-03-2014 01:23:00      0.000     0.000    0.0000
  MAY-03-2014 01:24:00      0.000     0.000    0.0000
  MAY-03-2014 01:25:00      0.000     0.000    0.0000
  MAY-03-2014 01:26:00      0.000     0.000    0.0000
  MAY-03-2014 01:27:00      0.000     0.000    0.0000
  MAY-03-2014 01:28:00      0.000     0.000    0.0000
  MAY-03-2014 01:29:00      0.000     0.000    0.0000
  MAY-03-2014 01:30:00      0.000     0.000    0.0000
  MAY-03-2014 01:31:00      0.000     0.000    0.0000
  MAY-03-2014 01:32:00      0.000     0.000    0.0000
  MAY-03-2014 01:33:00      0.000     0.000    0.0000
  MAY-03-2014 01:34:00      0.000     0.000    0.0000
  MAY-03-2014 01:35:00      0.000     0.000    0.0000
  MAY-03-2014 01:36:00      0.000     0.000    0.0000
  MAY-03-2014 01:37:00      0.000     0.000    0.0000
  MAY-03-2014 01:38:00      0.000     0.000    0.0000
  MAY-03-2014 01:39:00      0.000     0.000    0.0000
  MAY-03-2014 01:40:00      0.000     0.000    0.0000
  MAY-03-2014 01:41:00      0.000     0.000    0.0000
  MAY-03-2014 01:42:00      0.000     0.000    0.0000
  MAY-03-2014 01:43:00      0.000     0.000    0.0000
  MAY-03-2014 01:44:00      0.000     0.000    0.0000
  MAY-03-2014 01:45:00      0.000     0.000    0.0000
  MAY-03-2014 01:46:00      0.000     0.000    0.0000
  MAY-03-2014 01:47:00      0.000     0.000    0.0000
  MAY-03-2014 01:48:00      0.000     0.000    0.0000
  MAY-03-2014 01:49:00      0.000     0.000    0.0000
  MAY-03-2014 01:50:00      0.000     0.000    0.0000
  MAY-03-2014 01:51:00      0.000     0.000    0.0000
  MAY-03-2014 01:52:00      0.000     0.000    0.0000
  MAY-03-2014 01:53:00      0.000     0.000    0.0000
  MAY-03-2014 01:54:00      0.000     0.000    0.0000
  MAY-03-2014 01:55:00      0.000     0.000    0.0000
  MAY-03-2014 01:56:00      0.000     0.000    0.0000
  MAY-03-2014 01:57:00      0.000     0.000    0.0000
  MAY-03-2014 01:58:00      0.000     0.000    0.0000
  MAY-03-2014 01:59:00      0.000     0.000    0.0000
  MAY-03-2014 02:00:00      0.000     0.000    0.0000
  MAY-03-2014 02:01:00      0.000     0.000    0.0000
  MAY-03-2014 02:02:00      0.000     0.000    0.0000
  MAY-03-2014 02:03:00      0.000     0.000    0.0000
  MAY-03-2014 02:04:00      0.000     0.000    0.0000
  MAY-03-2014 02:05:00      0.000     0.000    0.0000
  MAY-03-2014 02:06:00      0.000     0.000    0.0000
  MAY-03-2014 02:07:00      0.000     0.000    0.0000
  MAY-03-2014 02:08:00      0.000     0.000    0.0000
  MAY-03-2014 02:09:00      0.000     0.000    0.0000
  MAY-03-2014 02:10:00      0.000     0.000    0.0000
  MAY-03-2014 02:11:00      0.000     0.000    0.0000
  MAY-03-2014 02:12:00      0.000     0.000    0.0000
  MAY-03-2014 02:13:00      0.000     0.000    0.0000
  MAY-03-2014 02:14:00      0.000     0.000    0.0000
  MAY-03-2014 02:15:00      0.000     0.000    0.0000
  MAY-03-2014 02:16:00      0.000     0.000    0.0000
  MAY-03-2014 02:17:00      0.000     0.000    0.0000
  MAY-03-2014 02:18:00      0.000     0.000    0.0000
  MAY-03-2014 02:19:00      0.000     0.000    0.0000
  MAY-03-2014 02:20:00      0.000     0.000    0.0000
  MAY-03-2014 02:21:00      0.000     0.000    0.0000
  MAY-03-2014 02:22:00      0.000     0.000    0.0000
  MAY-03-2014 02:23:00      0.000     0.000    0.0000
  MAY-03-2014 02:24:00      0.000     0.000    0.0000
  MAY-03-2014 02:25:00      0.000     0.000    0.0000
  MAY-03-2014 02:26:00      0.000     0.000    0.0000
  MAY-03-2014 02:27:00      0.000     0.000    0.0000
  MAY-03-2014 02:28:00      0.000     0.000    0.0000
  MAY-03-2014 02:29:00      0.000     0.000    0.0000
  MAY-03-2014 02:30:00      0.000     0.000    0.0000
  MAY-03-2014 02:31:00      0.000     0.000    0.0000
  MAY-03-2014 02:32:00      0.000     0.000    0.0000
  MAY-03-2014 02:33:00      0.000     0.000    0.0000
  MAY-03-2014 02:34:00      0.000     0.000    0.0000
  MAY-03-2014 02:35:00      0.000     0.000    0.0000
  MAY-03-2014 02:36:00      0.000     0.000    0.0000
  MAY-03-2014 02:37:00      0.000     0.000    0.0000
  MAY-03-2014 02:38:00      0.000     0.000    0.0000
  MAY-03-2014 02:39:00      0.000     0.000    0.0000
  MAY-03-2014 02:40:00      0.000     0.000    0.0000
  MAY-03-2014 02:41:00      0.000     0.000    0.0000
  MAY-03-2014 02:42:00      0.000     0.000    0.0000
  MAY-03-2014 02:43:00      0.000     0.000    0.0000
  MAY-03-2014 02:44:00      0.000     0.000    0.0000
  MAY-03-2014 02:45:00      0.000     0.000    0.0000
  MAY-03-2014 02:46:00      0.000     0.000    0.0000
  MAY-03-2014 02:47:00      0.000     0.000    0.0000
  MAY-03-2014 02:48:00      0.000     0.000    0.0000
  MAY-03-2014 02:49:00      0.000     0.000    0.0000
  MAY-03-2014 02:50:00      0.000     0.000    0.0000
  MAY-03-2014 02:51:00      0.000     0.000    0.0000
  MAY-03-2014 02:52:00      0.000     0.000    0.0000
  MAY-03-2014 02:53:00      0.000     0.000    0.0000
  MAY-03-2014 02:54:00      0.000     0.000    0.0000
  MAY-03-2014 02:55:00      0.000     0.000    0.0000
  MAY-03-2014 02:56:00      0.000     0.000    0.0000
  MAY-03-2014 02:57:00      0.000     0.000    0.0000
  MAY-03-2014 02:58:00      0.000     0.000    0.0000
  MAY-03-2014 02:59:00      0.000     0.000    0.0000
  MAY-03-2014 03:00:00      0.000     0.000    0.0000
  MAY-03-2014 03:01:00      0.000     0.000    0.0000
  MAY-03-2014 03:02:00      0.000     0.000    0.0000
  MAY-03-2014 03:03:00      0.000     0.000    0.0000
  MAY-03-2014 03:04:00      0.000     0.000    0.0000
  MAY-03-2014 03:05:00      0.000     0.000    0.0000
  MAY-03-2014 03:06:00      0.000     0.000    0.0000
  MAY-03-2014 03:07:00      0.000     0.000    0.0000
  MAY-03-2014 03:08:00      0.000     0.000    0.0000
  MAY-03-2014 03:09:00      0.000     0.000    0.0000
  MAY-03-2014 03:10:00      0.000     0.000    0.0000
  MAY-03-2014 03:11:00      0.000     0.000    0.0000
  MAY-03-2014 03:12:00      0.000     0.000    0.0000
  MAY-03-2014 03:13:00      0.000     0.000    0.0000
  MAY-03-2014 03:14:00      0.000     0.000    0.0000
  MAY-03-2014 03:15:00      0.000     0.000    0.0000
  MAY-03-2014 03:16:00      0.000     0.000    0.0000
  MAY-03-2014 03:17:00      0.000     0.000    0.0000
  MAY-03-2014 03:18:00      0.000     0.000    0.0000
  MAY-03-2014 03:19:00      0.000     0.000    0.0000
  MAY-03-2014 03:20:00      0.000     0.000    0.0000
  MAY-03-2014 03:21:00      0.000     0.000    0.0000
  MAY-03-2014 03:22:00      0.000     0.000    0.0000
  MAY-03-2014 03:23:00      0.000     0.000    0.0000
  MAY-03-2014 03:24:00      0.000     0.000    0.0000
  MAY-03-2014 03:25:00      0.000     0.000    0.0000
  MAY-03-2014 03:26:00      0.000     0.000    0.0000
  MAY-03-2014 03:27:00      0.000     0.000    0.0000
  MAY-03-2014 03:28:00      0.000     0.000    0.0000
  MAY-03-2014 03:29:00      0.000     0.000    0.0000
  MAY-03-2014 03:30:00      0.000     0.000    0.0000
  MAY-03-2014 03:31:00      0.000     0.000    0.0000
  MAY-03-2014 03:32:00      0.000     0.000    0.0000
  MAY-03-2014 03:33:00      0.000     0.000    0.0000
  MAY-03-2014 03:34:00      0.000     0.000    0.0000
  MAY-03-2014 03:35:00      0.000     0.000    0.0000
  MAY-03-2014 03:36:00      0.000     0.000    0.0000
  MAY-03-2014 03:37:00      0.000     0.000    0.0000
  MAY-03-2014 03:38:00      0.000     0.000    0.0000
  MAY-03-2014 03:39:00      0.000     0.000    0.0000
  MAY-03-2014 03:40:00      0.000     0.000    0.0000
  MAY-03-2014 03:41:00      0.000     0.000    0.0000
  MAY-03-2014 03:42:00      0.000     0.000    0.0000
  MAY-03-2014 03:43:00      0.000     0.000    0.0000
  MAY-03-2014 03:44:00      0.000     0.000    0.0000
  MAY-03-2014 03:45:00      0.000     0.000    0.0000
  MAY-03-2014 03:46:00      0.000     0.000    0.0000
  MAY-03-2014 03:47:00      0.000     0.000    0.0000
  MAY-03-2014 03:48:00      0.000     0.000    0.0000
  MAY-03-2014 03:49:00      0.000     0.000    0.0000
  MAY-03-2014 03:50:00      0.000     0.000    0.0000
  MAY-03-2014 03:51:00      0.000     0.000    0.0000
  MAY-03-2014 03:52:00      0.000     0.000    0.0000
  MAY-03-2014 03:53:00      0.000     0.000    0.0000
  MAY-03-2014 03:54:00      0.000     0.000    0.0000
  MAY-03-2014 03:55:00      0.000     0.000    0.0000
  MAY-03-2014 03:56:00      0.000     0.000    0.0000
  MAY-03-2014 03:57:00      0.000     0.000    0.0000
  MAY-03-2014 03:58:00      0.000     0.000    0.0000
  MAY-03-2014 03:59:00      0.000     0.000    0.0000
  MAY-03-2014 04:00:00      0.000     0.000    0.0000
  MAY-03-2014 04:01:00      0.000     0.000    0.0000
  MAY-03-2014 04:02:00      0.000     0.000    0.0000
  MAY-03-2014 04:03:00      0.000     0.000    0.0000
  MAY-03-2014 04:04:00      0.000     0.000    0.0000
  MAY-03-2014 04:05:00      0.000     0.000    0.0000
  MAY-03-2014 04:06:00      0.000     0.000    0.0000
  MAY-03-2014 04:07:00      0.000     0.000    0.0000
  MAY-03-2014 04:08:00      0.000     0.000    0.0000
  MAY-03-2014 04:09:00      0.000     0.000    0.0000
  MAY-03-2014 04:10:00      0.000     0.000    0.0000
  MAY-03-2014 04:11:00      0.000     0.000    0.0000
  MAY-03-2014 04:12:00      0.000     0.000    0.0000
  MAY-03-2014 04:13:00      0.000     0.000    0.0000
  MAY-03-2014 04:14:00      0.000     0.000    0.0000
  MAY-03-2014 04:15:00      0.000     0.000    0.0000
  MAY-03-2014 04:16:00      0.000     0.000    0.0000
  MAY-03-2014 04:17:00      0.000     0.000    0.0000
  MAY-03-2014 04:18:00      0.000     0.000    0.0000
  MAY-03-2014 04:19:00      0.000     0.000    0.0000
  MAY-03-2014 04:20:00      0.000     0.000    0.0000
  MAY-03-2014 04:21:00      0.000     0.000    0.0000
  MAY-03-2014 04:22:00      0.000     0.000    0.0000
  MAY-03-2014 04:23:00      0.000     0.000    0.0000
  MAY-03-2014 04:24:00      0.000     0.000    0.0000
  MAY-03-2014 04:25:00      0.000     0.000    0.0000
  MAY-03-2014 04:26:00      0.000     0.000    0.0000
  MAY-03-2014 04:27:00      0.000     0.000    0.0000
  MAY-03-2014 04:28:00      0.000     0.000    0.0000
  MAY-03-2014 04:29:00      0.000     0.000    0.0000
  MAY-03-2014 04:30:00      0.000     0.000    0.0000
  MAY-03-2014 04:31:00      0.000     0.000    0.0000
  MAY-03-2014 04:32:00      0.000     0.000    0.0000
  MAY-03-2014 04:33:00      0.000     0.000    0.0000
  MAY-03-2014 04:34:00      0.000     0.000    0.0000
  MAY-03-2014 04:35:00      0.000     0.000    0.0000
  MAY-03-2014 04:36:00      0.000     0.000    0.0000
  MAY-03-2014 04:37:00      0.000     0.000    0.0000
  MAY-03-2014 04:38:00      0.000     0.000    0.0000
  MAY-03-2014 04:39:00      0.000     0.000    0.0000
  MAY-03-2014 04:40:00      0.000     0.000    0.0000
  MAY-03-2014 04:41:00      0.000     0.000    0.0000
  MAY-03-2014 04:42:00      0.000     0.000    0.0000
  MAY-03-2014 04:43:00      0.000     0.000    0.0000
  MAY-03-2014 04:44:00      0.000     0.000    0.0000
  MAY-03-2014 04:45:00      0.000     0.000    0.0000
  MAY-03-2014 04:46:00      0.000     0.000    0.0000
  MAY-03-2014 04:47:00      0.000     0.000    0.0000
  MAY-03-2014 04:48:00      0.000     0.000    0.0000
  MAY-03-2014 04:49:00      0.000     0.000    0.0000
  MAY-03-2014 04:50:00      0.000     0.000    0.0000
  MAY-03-2014 04:51:00      0.000     0.000    0.0000
  MAY-03-2014 04:52:00      0.000     0.000    0.0000
  MAY-03-2014 04:53:00      0.000     0.000    0.0000
  MAY-03-2014 04:54:00      0.000     0.000    0.0000
  MAY-03-2014 04:55:00      0.000     0.000    0.0000
  MAY-03-2014 04:56:00      0.000     0.000    0.0000
  MAY-03-2014 04:57:00      0.000     0.000    0.0000
  MAY-03-2014 04:58:00      0.000     0.000    0.0000
  MAY-03-2014 04:59:00      0.000     0.000    0.0000
  MAY-03-2014 05:00:00      0.000     0.000    0.0000
  MAY-03-2014 05:01:00      0.000     0.000    0.0000
  MAY-03-2014 05:02:00      0.000     0.000    0.0000
  MAY-03-2014 05:03:00      0.000     0.000    0.0000
  MAY-03-2014 05:04:00      0.000     0.000    0.0000
  MAY-03-2014 05:05:00      0.000     0.000    0.0000
  MAY-03-2014 05:06:00      0.000     0.000    0.0000
  MAY-03-2014 05:07:00      0.000     0.000    0.0000
  MAY-03-2014 05:08:00      0.000     0.000    0.0000
  MAY-03-2014 05:09:00      0.000     0.000    0.0000
  MAY-03-2014 05:10:00      0.000     0.000    0.0000
  MAY-03-2014 05:11:00      0.000     0.000    0.0000
  MAY-03-2014 05:12:00      0.000     0.000    0.0000
  MAY-03-2014 05:13:00      0.000     0.000    0.0000
  MAY-03-2014 05:14:00      0.000     0.000    0.0000
  MAY-03-2014 05:15:00      0.000     0.000    0.0000
  MAY-03-2014 05:16:00      0.000     0.000    0.0000
  MAY-03-2014 05:17:00      0.000     0.000    0.0000
  MAY-03-2014 05:18:00      0.000     0.000    0.0000
  MAY-03-2014 05:19:00      0.000     0.000    0.0000
  MAY-03-2014 05:20:00      0.000     0.000    0.0000
  MAY-03-2014 05:21:00      0.000     0.000    0.0000
  MAY-03-2014 05:22:00      0.000     0.000    0.0000
  MAY-03-2014 05:23:00      0.000     0.000    0.0000
  MAY-03-2014 05:24:00      0.000     0.000    0.0000
  MAY-03-2014 05:25:00      0.000     0.000    0.0000
  MAY-03-2014 05:26:00      0.000     0.000    0.0000
  MAY-03-2014 05:27:00      0.000     0.000    0.0000
  MAY-03-2014 05:28:00      0.000     0.000    0.0000
  MAY-03-2014 05:29:00      0.000     0.000    0.0000
  MAY-03-2014 05:30:00      0.000     0.000    0.0000
  MAY-03-2014 05:31:00      0.000     0.000    0.0000
  MAY-03-2014 05:32:00      0.000     0.000    0.0000
  MAY-03-2014 05:33:00      0.000     0.000    0.0000
  MAY-03-2014 05:34:00      0.000     0.000    0.0000
  MAY-03-2014 05:35:00      0.000     0.000    0.0000
  MAY-03-2014 05:36:00      0.000     0.000    0.0000
  MAY-03-2014 05:37:00      0.000     0.000    0.0000
  MAY-03-2014 05:38:00      0.000     0.000    0.0000
  MAY-03-2014 05:39:00      0.000     0.000    0.0000
  MAY-03-2014 05:40:00      0.000     0.000    0.0000
  MAY-03-2014 05:41:00      0.000     0.000    0.0000
  MAY-03-2014 05:42:00      0.000     0.000    0.0000
  MAY-03-2014 05:43:00      0.000     0.000    0.0000
  MAY-03-2014 05:44:00      0.000     0.000    0.0000
  MAY-03-2014 05:45:00      0.000     0.000    0.0000
  MAY-03-2014 05:46:00      0.000     0.000    0.0000
  MAY-03-2014 05:47:00      0.000     0.000    0.0000
  MAY-03-2014 05:48:00      0.000     0.000    0.0000
  MAY-03-2014 05:49:00      0.000     0.000    0.0000
  MAY-03-2014 05:50:00      0.000     0.000    0.0000
  MAY-03-2014 05:51:00      0.000     0.000    0.0000
  MAY-03-2014 05:52:00      0.000     0.000    0.0000
  MAY-03-2014 05:53:00      0.000     0.000    0.0000
  MAY-03-2014 05:54:00      0.000     0.000    0.0000
  MAY-03-2014 05:55:00      0.000     0.000    0.0000
  MAY-03-2014 05:56:00      0.000     0.000    0.0000
  MAY-03-2014 05:57:00      0.000     0.000    0.0000
  MAY-03-2014 05:58:00      0.000     0.000    0.0000
  MAY-03-2014 05:59:00      0.000     0.000    0.0000
  MAY-03-2014 06:00:00      0.000     0.000    0.0000
  
  
  <<< Subcatchment C-4 >>>
  ---------------------------------------------------
  Date        Time        Precip.    Losses    Runoff
                            mm/hr     mm/hr       CMS
  ---------------------------------------------------
  MAY-03-2014 00:01:00      0.000     0.000    0.0000
  MAY-03-2014 00:02:00      0.000     0.000    0.0000
  MAY-03-2014 00:03:00      0.000     0.000    0.0000
  MAY-03-2014 00:04:00      0.000     0.000    0.0000
  MAY-03-2014 00:05:00      0.000     0.000    0.0000
  MAY-03-2014 00:06:00      0.000     0.000    0.0000
  MAY-03-2014 00:07:00      0.000     0.000    0.0000
  MAY-03-2014 00:08:00      0.000     0.000    0.0000
  MAY-03-2014 00:09:00      0.000     0.000    0.0000
  MAY-03-2014 00:10:00      0.000     0.000    0.0000
  MAY-03-2014 00:11:00      0.000     0.000    0.0000
  MAY-03-2014 00:12:00      0.000     0.000    0.0000
  MAY-03-2014 00:13:00      0.000     0.000    0.0000
  MAY-03-2014 00:14:00      0.000     0.000    0.0000
  MAY-03-2014 00:15:00      0.000     0.000    0.0000
  MAY-03-2014 00:16:00      0.000     0.000    0.0000
  MAY-03-2014 00:17:00      0.000     0.000    0.0000
  MAY-03-2014 00:18:00      0.000     0.000    0.0000
  MAY-03-2014 00:19:00      0.000     0.000    0.0000
  MAY-03-2014 00:20:00      0.000     0.000    0.0000
  MAY-03-2014 00:21:00      0.000     0.000    0.0000
  MAY-03-2014 00:22:00      0.000     0.000    0.0000
  MAY-03-2014 00:23:00      0.000     0.000    0.0000
  MAY-03-2014 00:24:00      0.000     0.000    0.0000
  MAY-03-2014 00:25:00      0.000     0.000    0.0000
  MAY-03-2014 00:26:00      0.000     0.000    0.0000
  MAY-03-2014 00:27:00      0.000     0.000    0.0000
  MAY-03-2014 00:28:00      0.000     0.000    0.0000
  MAY-03-2014 00:29:00      0.000     0.000    0.0000
  MAY-03-2014 00:30:00      0.000     0.000    0.0000
  MAY-03-2014 00:31:00      0.000     0.000    0.0000
  MAY-03-2014 00:32:00      0.000     0.000    0.0000
  MAY-03-2014 00:33:00      0.000     0.000    0.0000
  MAY-03-2014 00:34:00      0.000     0.000    0.0000
  MAY-03-2014 00:35:00      0.000     0.000    0.0000
  MAY-03-2014 00:36:00      0.000     0.000    0.0000
  MAY-03-2014 00:37:00      0.000     0.000    0.0000
  MAY-03-2014 00:38:00      0.000     0.000    0.0000
  MAY-03-2014 00:39:00      0.000     0.000    0.0000
  MAY-03-2014 00:40:00      0.000     0.000    0.0000
  MAY-03-2014 00:41:00      0.000     0.000    0.0000
  MAY-03-2014 00:42:00      0.000     0.000    0.0000
  MAY-03-2014 00:43:00      0.000     0.000    0.0000
  MAY-03-2014 00:44:00      0.000     0.000    0.0000
  MAY-03-2014 00:45:00      0.000     0.000    0.0000
  MAY-03-2014 00:46:00      0.000     0.000    0.0000
  MAY-03-2014 00:47:00      0.000     0.000    0.0000
  MAY-03-2014 00:48:00      0.000     0.000    0.0000
  MAY-03-2014 00:49:00      0.000     0.000    0.0000
  MAY-03-2014 00:50:00      0.000     0.000    0.0000
  MAY-03-2014 00:51:00      0.000     0.000    0.0000
  MAY-03-2014 00:52:00      0.000     0.000    0.0000
  MAY-03-2014 00:53:00      0.000     0.000    0.0000
  MAY-03-2014 00:54:00      0.000     0.000    0.0000
  MAY-03-2014 00:55:00      0.000     0.000    0.0000
  MAY-03-2014 00:56:00      0.000     0.000    0.0000
  MAY-03-2014 00:57:00      0.000     0.000    0.0000
  MAY-03-2014 00:58:00      0.000     0.000    0.0000
  MAY-03-2014 00:59:00      0.000     0.000    0.0000
  MAY-03-2014 01:00:00      0.000     0.000    0.0000
  MAY-03-2014 01:01:00      0.000     0.000    0.0000
  MAY-03-2014 01:02:00      0.000     0.000    0.0000
  MAY-03-2014 01:03:00      0.000     0.000    0.0000
  MAY-03-2014 01:04:00      0.000     0.000    0.0000
  MAY-03-2014 01:05:00      0.000     0.000    0.0000
  MAY-03-2014 01:06:00      0.000     0.000    0.0000
  MAY-03-2014 01:07:00      0.000     0.000    0.0000
  MAY-03-2014 01:08:00      0.000     0.000    0.0000
  MAY-03-2014 01:09:00      0.000     0.000    0.0000
  MAY-03-2014 01:10:00      0.000     0.000    0.0000
  MAY-03-2014 01:11:00      0.000     0.000    0.0000
  MAY-03-2014 01:12:00      0.000     0.000    0.0000
  MAY-03-2014 01:13:00      0.000     0.000    0.0000
  MAY-03-2014 01:14:00      0.000     0.000    0.0000
  MAY-03-2014 01:15:00      0.000     0.000    0.0000
  MAY-03-2014 01:16:00      0.000     0.000    0.0000
  MAY-03-2014 01:17:00      0.000     0.000    0.0000
  MAY-03-2014 01:18:00      0.000     0.000    0.0000
  MAY-03-2014 01:19:00      0.000     0.000    0.0000
  MAY-03-2014 01:20:00      0.000     0.000    0.0000
  MAY-03-2014 01:21:00      0.000     0.000    0.0000
  MAY-03-2014 01:22:00      0.000     0.000    0.0000
  MAY-03-2014 01:23:00      0.000     0.000    0.0000
  MAY-03-2014 01:24:00      0.000     0.000    0.0000
  MAY-03-2014 01:25:00      0.000     0.000    0.0000
  MAY-03-2014 01:26:00      0.000     0.000    0.0000
  MAY-03-2014 01:27:00      0.000     0.000    0.0000
  MAY-03-2014 01:28:00      0.000     0.000    0.0000
  MAY-03-2014 01:29:00      0.000     0.000    0.0000
  MAY-03-2014 01:30:00      0.000     0.000    0.0000
  MAY-03-2014 01:31:00      0.000     0.000    0.0000
  MAY-03-2014 01:32:00      0.000     0.000    0.0000
  MAY-03-2014 01:33:00      0.000     0.000    0.0000
  MAY-03-2014 01:34:00      0.000     0.000    0.0000
  MAY-03-2014 01:35:00      0.000     0.000    0.0000
  MAY-03-2014 01:36:00      0.000     0.000    0.0000
  MAY-03-2014 01:37:00      0.000     0.000    0.0000
  MAY-03-2014 01:38:00      0.000     0.000    0.0000
  MAY-03-2014 01:39:00      0.000     0.000    0.0000
  MAY-03-2014 01:40:00      0.000     0.000    0.0000
  MAY-03-2014 01:41:00      0.000     0.000    0.0000
  MAY-03-2014 01:42:00      0.000     0.000    0.0000
  MAY-03-2014 01:43:00      0.000     0.000    0.0000
  MAY-03-2014 01:44:00      0.000     0.000    0.0000
  MAY-03-2014 01:45:00      0.000     0.000    0.0000
  MAY-03-2014 01:46:00      0.000     0.000    0.0000
  MAY-03-2014 01:47:00      0.000     0.000    0.0000
  MAY-03-2014 01:48:00      0.000     0.000    0.0000
  MAY-03-2014 01:49:00      0.000     0.000    0.0000
  MAY-03-2014 01:50:00      0.000     0.000    0.0000
  MAY-03-2014 01:51:00      0.000     0.000    0.0000
  MAY-03-2014 01:52:00      0.000     0.000    0.0000
  MAY-03-2014 01:53:00      0.000     0.000    0.0000
  MAY-03-2014 01:54:00      0.000     0.000    0.0000
  MAY-03-2014 01:55:00      0.000     0.000    0.0000
  MAY-03-2014 01:56:00      0.000     0.000    0.0000
  MAY-03-2014 01:57:00      0.000     0.000    0.0000
  MAY-03-2014 01:58:00      0.000     0.000    0.0000
  MAY-03-2014 01:59:00      0.000     0.000    0.0000
  MAY-03-2014 02:00:00      0.000     0.000    0.0000
  MAY-03-2014 02:01:00      0.000     0.000    0.0000
  MAY-03-2014 02:02:00      0.000     0.000    0.0000
  MAY-03-2014 02:03:00      0.000     0.000    0.0000
  MAY-03-2014 02:04:00      0.000     0.000    0.0000
  MAY-03-2014 02:05:00      0.000     0.000    0.0000
  MAY-03-2014 02:06:00      0.000     0.000    0.0000
  MAY-03-2014 02:07:00      0.000     0.000    0.0000
  MAY-03-2014 02:08:00      0.000     0.000    0.0000
  MAY-03-2014 02:09:00      0.000     0.000    0.0000
  MAY-03-2014 02:10:00      0.000     0.000    0.0000
  MAY-03-2014 02:11:00      0.000     0.000    0.0000
  MAY-03-2014 02:12:00      0.000     0.000    0.0000
  MAY-03-2014 02:13:00      0.000     0.000    0.0000
  MAY-03-2014 02:14:00      0.000     0.000    0.0000
  MAY-03-2014 02:15:00      0.000     0.000    0.0000
  MAY-03-2014 02:16:00      0.000     0.000    0.0000
  MAY-03-2014 02:17:00      0.000     0.000    0.0000
  MAY-03-2014 02:18:00      0.000     0.000    0.0000
  MAY-03-2014 02:19:00      0.000     0.000    0.0000
  MAY-03-2014 02:20:00      0.000     0.000    0.0000
  MAY-03-2014 02:21:00      0.000     0.000    0.0000
  MAY-03-2014 02:22:00      0.000     0.000    0.0000
  MAY-03-2014 02:23:00      0.000     0.000    0.0000
  MAY-03-2014 02:24:00      0.000     0.000    0.0000
  MAY-03-2014 02:25:00      0.000     0.000    0.0000
  MAY-03-2014 02:26:00      0.000     0.000    0.0000
  MAY-03-2014 02:27:00      0.000     0.000    0.0000
  MAY-03-2014 02:28:00      0.000     0.000    0.0000
  MAY-03-2014 02:29:00      0.000     0.000    0.0000
  MAY-03-2014 02:30:00      0.000     0.000    0.0000
  MAY-03-2014 02:31:00      0.000     0.000    0.0000
  MAY-03-2014 02:32:00      0.000     0.000    0.0000
  MAY-03-2014 02:33:00      0.000     0.000    0.0000
  MAY-03-2014 02:34:00      0.000     0.000    0.0000
  MAY-03-2014 02:35:00      0.000     0.000    0.0000
  MAY-03-2014 02:36:00      0.000     0.000    0.0000
  MAY-03-2014 02:37:00      0.000     0.000    0.0000
  MAY-03-2014 02:38:00      0.000     0.000    0.0000
  MAY-03-2014 02:39:00      0.000     0.000    0.0000
  MAY-03-2014 02:40:00      0.000     0.000    0.0000
  MAY-03-2014 02:41:00      0.000     0.000    0.0000
  MAY-03-2014 02:42:00      0.000     0.000    0.0000
  MAY-03-2014 02:43:00      0.000     0.000    0.0000
  MAY-03-2014 02:44:00      0.000     0.000    0.0000
  MAY-03-2014 02:45:00      0.000     0.000    0.0000
  MAY-03-2014 02:46:00      0.000     0.000    0.0000
  MAY-03-2014 02:47:00      0.000     0.000    0.0000
  MAY-03-2014 02:48:00      0.000     0.000    0.0000
  MAY-03-2014 02:49:00      0.000     0.000    0.0000
  MAY-03-2014 02:50:00      0.000     0.000    0.0000
  MAY-03-2014 02:51:00      0.000     0.000    0.0000
  MAY-03-2014 02:52:00      0.000     0.000    0.0000
  MAY-03-2014 02:53:00      0.000     0.000    0.0000
  MAY-03-2014 02:54:00      0.000     0.000    0.0000
  MAY-03-2014 02:55:00      0.000     0.000    0.0000
  MAY-03-2014 02:56:00      0.000     0.000    0.0000
  MAY-03-2014 02:57:00      0.000     0.000    0.0000
  MAY-03-2014 02:58:00      0.000     0.000    0.0000
  MAY-03-2014 02:59:00      0.000     0.000    0.0000
  MAY-03-2014 03:00:00      0.000     0.000    0.0000
  MAY-03-2014 03:01:00      0.000     0.000    0.0000
  MAY-03-2014 03:02:00      0.000     0.000    0.0000
  MAY-03-2014 03:03:00      0.000     0.000    0.0000
  MAY-03-2014 03:04:00      0.000     0.000    0.0000
  MAY-03-2014 03:05:00      0.000     0.000    0.0000
  MAY-03-2014 03:06:00      0.000     0.000    0.0000
  MAY-03-2014 03:07:00      0.000     0.000    0.0000
  MAY-03-2014 03:08:00      0.000     0.000    0.0000
  MAY-03-2014 03:09:00      0.000     0.000    0.0000
  MAY-03-2014 03:10:00      0.000     0.000    0.0000
  MAY-03-2014 03:11:00      0.000     0.000    0.0000
  MAY-03-2014 03:12:00      0.000     0.000    0.0000
  MAY-03-2014 03:13:00      0.000     0.000    0.0000
  MAY-03-2014 03:14:00      0.000     0.000    0.0000
  MAY-03-2014 03:15:00      0.000     0.000    0.0000
  MAY-03-2014 03:16:00      0.000     0.000    0.0000
  MAY-03-2014 03:17:00      0.000     0.000    0.0000
  MAY-03-2014 03:18:00      0.000     0.000    0.0000
  MAY-03-2014 03:19:00      0.000     0.000    0.0000
  MAY-03-2014 03:20:00      0.000     0.000    0.0000
  MAY-03-2014 03:21:00      0.000     0.000    0.0000
  MAY-03-2014 03:22:00      0.000     0.000    0.0000
  MAY-03-2014 03:23:00      0.000     0.000    0.0000
  MAY-03-2014 03:24:00      0.000     0.000    0.0000
  MAY-03-2014 03:25:00      0.000     0.000    0.0000
  MAY-03-2014 03:26:00      0.000     0.000    0.0000
  MAY-03-2014 03:27:00      0.000     0.000    0.0000
  MAY-03-2014 03:28:00      0.000     0.000    0.0000
  MAY-03-2014 03:29:00      0.000     0.000    0.0000
  MAY-03-2014 03:30:00      0.000     0.000    0.0000
  MAY-03-2014 03:31:00      0.000     0.000    0.0000
  MAY-03-2014 03:32:00      0.000     0.000    0.0000
  MAY-03-2014 03:33:00      0.000     0.000    0.0000
  MAY-03-2014 03:34:00      0.000     0.000    0.0000
  MAY-03-2014 03:35:00      0.000     0.000    0.0000
  MAY-03-2014 03:36:00      0.000     0.000    0.0000
  MAY-03-2014 03:37:00      0.000     0.000    0.0000
  MAY-03-2014 03:38:00      0.000     0.000    0.0000
  MAY-03-2014 03:39:00      0.000     0.000    0.0000
  MAY-03-2014 03:40:00      0.000     0.000    0.0000
  MAY-03-2014 03:41:00      0.000     0.000    0.0000
  MAY-03-2014 03:42:00      0.000     0.000    0.0000
  MAY-03-2014 03:43:00      0.000     0.000    0.0000
  MAY-03-2014 03:44:00      0.000     0.000    0.0000
  MAY-03-2014 03:45:00      0.000     0.000    0.0000
  MAY-03-2014 03:46:00      0.000     0.000    0.0000
  MAY-03-2014 03:47:00      0.000     0.000    0.0000
  MAY-03-2014 03:48:00      0.000     0.000    0.0000
  MAY-03-2014 03:49:00      0.000     0.000    0.0000
  MAY-03-2014 03:50:00      0.000     0.000    0.0000
  MAY-03-2014 03:51:00      0.000     0.000    0.0000
  MAY-03-2014 03:52:00      0.000     0.000    0.0000
  MAY-03-2014 03:53:00      0.000     0.000    0.0000
  MAY-03-2014 03:54:00      0.000     0.000    0.0000
  MAY-03-2014 03:55:00      0.000     0.000    0.0000
  MAY-03-2014 03:56:00      0.000     0.000    0.0000
  MAY-03-2014 03:57:00      0.000     0.000    0.0000
  MAY-03-2014 03:58:00      0.000     0.000    0.0000
  MAY-03-2014 03:59:00      0.000     0.000    0.0000
  MAY-03-2014 04:00:00      0.000     0.000    0.0000
  MAY-03-2014 04:01:00      0.000     0.000    0.0000
  MAY-03-2014 04:02:00      0.000     0.000    0.0000
  MAY-03-2014 04:03:00      0.000     0.000    0.0000
  MAY-03-2014 04:04:00      0.000     0.000    0.0000
  MAY-03-2014 04:05:00      0.000     0.000    0.0000
  MAY-03-2014 04:06:00      0.000     0.000    0.0000
  MAY-03-2014 04:07:00      0.000     0.000    0.0000
  MAY-03-2014 04:08:00      0.000     0.000    0.0000
  MAY-03-2014 04:09:00      0.000     0.000    0.0000
  MAY-03-2014 04:10:00      0.000     0.000    0.0000
  MAY-03-2014 04:11:00      0.000     0.000    0.0000
  MAY-03-2014 04:12:00      0.000     0.000    0.0000
  MAY-03-2014 04:13:00      0.000     0.000    0.0000
  MAY-03-2014 04:14:00      0.000     0.000    0.0000
  MAY-03-2014 04:15:00      0.000     0.000    0.0000
  MAY-03-2014 04:16:00      0.000     0.000    0.0000
  MAY-03-2014 04:17:00      0.000     0.000    0.0000
  MAY-03-2014 04:18:00      0.000     0.000    0.0000
  MAY-03-2014 04:19:00      0.000     0.000    0.0000
  MAY-03-2014 04:20:00      0.000     0.000    0.0000
  MAY-03-2014 04:21:00      0.000     0.000    0.0000
  MAY-03-2014 04:22:00      0.000     0.000    0.0000
  MAY-03-2014 04:23:00      0.000     0.000    0.0000
  MAY-03-2014 04:24:00      0.000     0.000    0.0000
  MAY-03-2014 04:25:00      0.000     0.000    0.0000
  MAY-03-2014 04:26:00      0.000     0.000    0.0000
  MAY-03-2014 04:27:00      0.000     0.000    0.0000
  MAY-03-2014 04:28:00      0.000     0.000    0.0000
  MAY-03-2014 04:29:00      0.000     0.000    0.0000
  MAY-03-2014 04:30:00      0.000     0.000    0.0000
  MAY-03-2014 04:31:00      0.000     0.000    0.0000
  MAY-03-2014 04:32:00      0.000     0.000    0.0000
  MAY-03-2014 04:33:00      0.000     0.000    0.0000
  MAY-03-2014 04:34:00      0.000     0.000    0.0000
  MAY-03-2014 04:35:00      0.000     0.000    0.0000
  MAY-03-2014 04:36:00      0.000     0.000    0.0000
  MAY-03-2014 04:37:00      0.000     0.000    0.0000
  MAY-03-2014 04:38:00      0.000     0.000    0.0000
  MAY-03-2014 04:39:00      0.000     0.000    0.0000
  MAY-03-2014 04:40:00      0.000     0.000    0.0000
  MAY-03-2014 04:41:00      0.000     0.000    0.0000
  MAY-03-2014 04:42:00      0.000     0.000    0.0000
  MAY-03-2014 04:43:00      0.000     0.000    0.0000
  MAY-03-2014 04:44:00      0.000     0.000    0.0000
  MAY-03-2014 04:45:00      0.000     0.000    0.0000
  MAY-03-2014 04:46:00      0.000     0.000    0.0000
  MAY-03-2014 04:47:00      0.000     0.000    0.0000
  MAY-03-2014 04:48:00      0.000     0.000    0.0000
  MAY-03-2014 04:49:00      0.000     0.000    0.0000
  MAY-03-2014 04:50:00      0.000     0.000    0.0000
  MAY-03-2014 04:51:00      0.000     0.000    0.0000
  MAY-03-2014 04:52:00      0.000     0.000    0.0000
  MAY-03-2014 04:53:00      0.000     0.000    0.0000
  MAY-03-2014 04:54:00      0.000     0.000    0.0000
  MAY-03-2014 04:55:00      0.000     0.000    0.0000
  MAY-03-2014 04:56:00      0.000     0.000    0.0000
  MAY-03-2014 04:57:00      0.000     0.000    0.0000
  MAY-03-2014 04:58:00      0.000     0.000    0.0000
  MAY-03-2014 04:59:00      0.000     0.000    0.0000
  MAY-03-2014 05:00:00      0.000     0.000    0.0000
  MAY-03-2014 05:01:00      0.000     0.000    0.0000
  MAY-03-2014 05:02:00      0.000     0.000    0.0000
  MAY-03-2014 05:03:00      0.000     0.000    0.0000
  MAY-03-2014 05:04:00      0.000     0.000    0.0000
  MAY-03-2014 05:05:00      0.000     0.000    0.0000
  MAY-03-2014 05:06:00      0.000     0.000    0.0000
  MAY-03-2014 05:07:00      0.000     0.000    0.0000
  MAY-03-2014 05:08:00      0.000     0.000    0.0000
  MAY-03-2014 05:09:00      0.000     0.000    0.0000
  MAY-03-2014 05:10:00      0.000     0.000    0.0000
  MAY-03-2014 05:11:00      0.000     0.000    0.0000
  MAY-03-2014 05:12:00      0.000     0.000    0.0000
  MAY-03-2014 05:13:00      0.000     0.000    0.0000
  MAY-03-2014 05:14:00      0.000     0.000    0.0000
  MAY-03-2014 05:15:00      0.000     0.000    0.0000
  MAY-03-2014 05:16:00      0.000     0.000    0.0000
  MAY-03-2014 05:17:00      0.000     0.000    0.0000
  MAY-03-2014 05:18:00      0.000     0.000    0.0000
  MAY-03-2014 05:19:00      0.000     0.000    0.0000
  MAY-03-2014 05:20:00      0.000     0.000    0.0000
  MAY-03-2014 05:21:00      0.000     0.000    0.0000
  MAY-03-2014 05:22:00      0.000     0.000    0.0000
  MAY-03-2014 05:23:00      0.000     0.000    0.0000
  MAY-03-2014 05:24:00      0.000     0.000    0.0000
  MAY-03-2014 05:25:00      0.000     0.000    0.0000
  MAY-03-2014 05:26:00      0.000     0.000    0.0000
  MAY-03-2014 05:27:00      0.000     0.000    0.0000
  MAY-03-2014 05:28:00      0.000     0.000    0.0000
  MAY-03-2014 05:29:00      0.000     0.000    0.0000
  MAY-03-2014 05:30:00      0.000     0.000    0.0000
  MAY-03-2014 05:31:00      0.000     0.000    0.0000
  MAY-03-2014 05:32:00      0.000     0.000    0.0000
  MAY-03-2014 05:33:00      0.000     0.000    0.0000
  MAY-03-2014 05:34:00      0.000     0.000    0.0000
  MAY-03-2014 05:35:00      0.000     0.000    0.0000
  MAY-03-2014 05:36:00      0.000     0.000    0.0000
  MAY-03-2014 05:37:00      0.000     0.000    0.0000
  MAY-03-2014 05:38:00      0.000     0.000    0.0000
  MAY-03-2014 05:39:00      0.000     0.000    0.0000
  MAY-03-2014 05:40:00      0.000     0.000    0.0000
  MAY-03-2014 05:41:00      0.000     0.000    0.0000
  MAY-03-2014 05:42:00      0.000     0.000    0.0000
  MAY-03-2014 05:43:00      0.000     0.000    0.0000
  MAY-03-2014 05:44:00      0.000     0.000    0.0000
  MAY-03-2014 05:45:00      0.000     0.000    0.0000
  MAY-03-2014 05:46:00      0.000     0.000    0.0000
  MAY-03-2014 05:47:00      0.000     0.000    0.0000
  MAY-03-2014 05:48:00      0.000     0.000    0.0000
  MAY-03-2014 05:49:00      0.000     0.000    0.0000
  MAY-03-2014 05:50:00      0.000     0.000    0.0000
  MAY-03-2014 05:51:00      0.000     0.000    0.0000
  MAY-03-2014 05:52:00      0.000     0.000    0.0000
  MAY-03-2014 05:53:00      0.000     0.000    0.0000
  MAY-03-2014 05:54:00      0.000     0.000    0.0000
  MAY-03-2014 05:55:00      0.000     0.000    0.0000
  MAY-03-2014 05:56:00      0.000     0.000    0.0000
  MAY-03-2014 05:57:00      0.000     0.000    0.0000
  MAY-03-2014 05:58:00      0.000     0.000    0.0000
  MAY-03-2014 05:59:00      0.000     0.000    0.0000
  MAY-03-2014 06:00:00      0.000     0.000    0.0000
  
  
  <<< Subcatchment C-5 >>>
  ---------------------------------------------------
  Date        Time        Precip.    Losses    Runoff
                            mm/hr     mm/hr       CMS
  ---------------------------------------------------
  MAY-03-2014 00:01:00      0.000     0.000    0.0000
  MAY-03-2014 00:02:00      0.000     0.000    0.0000
  MAY-03-2014 00:03:00      0.000     0.000    0.0000
  MAY-03-2014 00:04:00      0.000     0.000    0.0000
  MAY-03-2014 00:05:00      0.000     0.000    0.0000
  MAY-03-2014 00:06:00      0.000     0.000    0.0000
  MAY-03-2014 00:07:00      0.000     0.000    0.0000
  MAY-03-2014 00:08:00      0.000     0.000    0.0000
  MAY-03-2014 00:09:00      0.000     0.000    0.0000
  MAY-03-2014 00:10:00      0.000     0.000    0.0000
  MAY-03-2014 00:11:00      0.000     0.000    0.0000
  MAY-03-2014 00:12:00      0.000     0.000    0.0000
  MAY-03-2014 00:13:00      0.000     0.000    0.0000
  MAY-03-2014 00:14:00      0.000     0.000    0.0000
  MAY-03-2014 00:15:00      0.000     0.000    0.0000
  MAY-03-2014 00:16:00      0.000     0.000    0.0000
  MAY-03-2014 00:17:00      0.000     0.000    0.0000
  MAY-03-2014 00:18:00      0.000     0.000    0.0000
  MAY-03-2014 00:19:00      0.000     0.000    0.0000
  MAY-03-2014 00:20:00      0.000     0.000    0.0000
  MAY-03-2014 00:21:00      0.000     0.000    0.0000
  MAY-03-2014 00:22:00      0.000     0.000    0.0000
  MAY-03-2014 00:23:00      0.000     0.000    0.0000
  MAY-03-2014 00:24:00      0.000     0.000    0.0000
  MAY-03-2014 00:25:00      0.000     0.000    0.0000
  MAY-03-2014 00:26:00      0.000     0.000    0.0000
  MAY-03-2014 00:27:00      0.000     0.000    0.0000
  MAY-03-2014 00:28:00      0.000     0.000    0.0000
  MAY-03-2014 00:29:00      0.000     0.000    0.0000
  MAY-03-2014 00:30:00      0.000     0.000    0.0000
  MAY-03-2014 00:31:00      0.000     0.000    0.0000
  MAY-03-2014 00:32:00      0.000     0.000    0.0000
  MAY-03-2014 00:33:00      0.000     0.000    0.0000
  MAY-03-2014 00:34:00      0.000     0.000    0.0000
  MAY-03-2014 00:35:00      0.000     0.000    0.0000
  MAY-03-2014 00:36:00      0.000     0.000    0.0000
  MAY-03-2014 00:37:00      0.000     0.000    0.0000
  MAY-03-2014 00:38:00      0.000     0.000    0.0000
  MAY-03-2014 00:39:00      0.000     0.000    0.0000
  MAY-03-2014 00:40:00      0.000     0.000    0.0000
  MAY-03-2014 00:41:00      0.000     0.000    0.0000
  MAY-03-2014 00:42:00      0.000     0.000    0.0000
  MAY-03-2014 00:43:00      0.000     0.000    0.0000
  MAY-03-2014 00:44:00      0.000     0.000    0.0000
  MAY-03-2014 00:45:00      0.000     0.000    0.0000
  MAY-03-2014 00:46:00      0.000     0.000    0.0000
  MAY-03-2014 00:47:00      0.000     0.000    0.0000
  MAY-03-2014 00:48:00      0.000     0.000    0.0000
  MAY-03-2014 00:49:00      0.000     0.000    0.0000
  MAY-03-2014 00:50:00      0.000     0.000    0.0000
  MAY-03-2014 00:51:00      0.000     0.000    0.0000
  MAY-03-2014 00:52:00      0.000     0.000    0.0000
  MAY-03-2014 00:53:00      0.000     0.000    0.0000
  MAY-03-2014 00:54:00      0.000     0.000    0.0000
  MAY-03-2014 00:55:00      0.000     0.000    0.0000
  MAY-03-2014 00:56:00      0.000     0.000    0.0000
  MAY-03-2014 00:57:00      0.000     0.000    0.0000
  MAY-03-2014 00:58:00      0.000     0.000    0.0000
  MAY-03-2014 00:59:00      0.000     0.000    0.0000
  MAY-03-2014 01:00:00      0.000     0.000    0.0000
  MAY-03-2014 01:01:00      0.000     0.000    0.0000
  MAY-03-2014 01:02:00      0.000     0.000    0.0000
  MAY-03-2014 01:03:00      0.000     0.000    0.0000
  MAY-03-2014 01:04:00      0.000     0.000    0.0000
  MAY-03-2014 01:05:00      0.000     0.000    0.0000
  MAY-03-2014 01:06:00      0.000     0.000    0.0000
  MAY-03-2014 01:07:00      0.000     0.000    0.0000
  MAY-03-2014 01:08:00      0.000     0.000    0.0000
  MAY-03-2014 01:09:00      0.000     0.000    0.0000
  MAY-03-2014 01:10:00      0.000     0.000    0.0000
  MAY-03-2014 01:11:00      0.000     0.000    0.0000
  MAY-03-2014 01:12:00      0.000     0.000    0.0000
  MAY-03-2014 01:13:00      0.000     0.000    0.0000
  MAY-03-2014 01:14:00      0.000     0.000    0.0000
  MAY-03-2014 01:15:00      0.000     0.000    0.0000
  MAY-03-2014 01:16:00      0.000     0.000    0.0000
  MAY-03-2014 01:17:00      0.000     0.000    0.0000
  MAY-03-2014 01:18:00      0.000     0.000    0.0000
  MAY-03-2014 01:19:00      0.000     0.000    0.0000
  MAY-03-2014 01:20:00      0.000     0.000    0.0000
  MAY-03-2014 01:21:00      0.000     0.000    0.0000
  MAY-03-2014 01:22:00      0.000     0.000    0.0000
  MAY-03-2014 01:23:00      0.000     0.000    0.0000
  MAY-03-2014 01:24:00      0.000     0.000    0.0000
  MAY-03-2014 01:25:00      0.000     0.000    0.0000
  MAY-03-2014 01:26:00      0.000     0.000    0.0000
  MAY-03-2014 01:27:00      0.000     0.000    0.0000
  MAY-03-2014 01:28:00      0.000     0.000    0.0000
  MAY-03-2014 01:29:00      0.000     0.000    0.0000
  MAY-03-2014 01:30:00      0.000     0.000    0.0000
  MAY-03-2014 01:31:00      0.000     0.000    0.0000
  MAY-03-2014 01:32:00      0.000     0.000    0.0000
  MAY-03-2014 01:33:00      0.000     0.000    0.0000
  MAY-03-2014 01:34:00      0.000     0.000    0.0000
  MAY-03-2014 01:35:00      0.000     0.000    0.0000
  MAY-03-2014 01:36:00      0.000     0.000    0.0000
  MAY-03-2014 01:37:00      0.000     0.000    0.0000
  MAY-03-2014 01:38:00      0.000     0.000    0.0000
  MAY-03-2014 01:39:00      0.000     0.000    0.0000
  MAY-03-2014 01:40:00      0.000     0.000    0.0000
  MAY-03-2014 01:41:00      0.000     0.000    0.0000
  MAY-03-2014 01:42:00      0.000     0.000    0.0000
  MAY-03-2014 01:43:00      0.000     0.000    0.0000
  MAY-03-2014 01:44:00      0.000     0.000    0.0000
  MAY-03-2014 01:45:00      0.000     0.000    0.0000
  MAY-03-2014 01:46:00      0.000     0.000    0.0000
  MAY-03-2014 01:47:00      0.000     0.000    0.0000
  MAY-03-2014 01:48:00      0.000     0.000    0.0000
  MAY-03-2014 01:49:00      0.000     0.000    0.0000
  MAY-03-2014 01:50:00      0.000     0.000    0.0000
  MAY-03-2014 01:51:00      0.000     0.000    0.0000
  MAY-03-2014 01:52:00      0.000     0.000    0.0000
  MAY-03-2014 01:53:00      0.000     0.000    0.0000
  MAY-03-2014 01:54:00      0.000     0.000    0.0000
  MAY-03-2014 01:55:00      0.000     0.000    0.0000
  MAY-03-2014 01:56:00      0.000     0.000    0.0000
  MAY-03-2014 01:57:00      0.000     0.000    0.0000
  MAY-03-2014 01:58:00      0.000     0.000    0.0000
  MAY-03-2014 01:59:00      0.000     0.000    0.0000
  MAY-03-2014 02:00:00      0.000     0.000    0.0000
  MAY-03-2014 02:01:00      0.000     0.000    0.0000
  MAY-03-2014 02:02:00      0.000     0.000    0.0000
  MAY-03-2014 02:03:00      0.000     0.000    0.0000
  MAY-03-2014 02:04:00      0.000     0.000    0.0000
  MAY-03-2014 02:05:00      0.000     0.000    0.0000
  MAY-03-2014 02:06:00      0.000     0.000    0.0000
  MAY-03-2014 02:07:00      0.000     0.000    0.0000
  MAY-03-2014 02:08:00      0.000     0.000    0.0000
  MAY-03-2014 02:09:00      0.000     0.000    0.0000
  MAY-03-2014 02:10:00      0.000     0.000    0.0000
  MAY-03-2014 02:11:00      0.000     0.000    0.0000
  MAY-03-2014 02:12:00      0.000     0.000    0.0000
  MAY-03-2014 02:13:00      0.000     0.000    0.0000
  MAY-03-2014 02:14:00      0.000     0.000    0.0000
  MAY-03-2014 02:15:00      0.000     0.000    0.0000
  MAY-03-2014 02:16:00      0.000     0.000    0.0000
  MAY-03-2014 02:17:00      0.000     0.000    0.0000
  MAY-03-2014 02:18:00      0.000     0.000    0.0000
  MAY-03-2014 02:19:00      0.000     0.000    0.0000
  MAY-03-2014 02:20:00      0.000     0.000    0.0000
  MAY-03-2014 02:21:00      0.000     0.000    0.0000
  MAY-03-2014 02:22:00      0.000     0.000    0.0000
  MAY-03-2014 02:23:00      0.000     0.000    0.0000
  MAY-03-2014 02:24:00      0.000     0.000    0.0000
  MAY-03-2014 02:25:00      0.000     0.000    0.0000
  MAY-03-2014 02:26:00      0.000     0.000    0.0000
  MAY-03-2014 02:27:00      0.000     0.000    0.0000
[...]
  MAY-03-2014 00:51:00      0.000     0.000     0.003     1.000
  MAY-03-2014 00:52:00      0.001     0.000     0.004     1.000
  MAY-03-2014 00:53:00      0.001     0.000     0.005     1.000
  MAY-03-2014 00:54:00      0.001     0.000     0.006     1.000
  MAY-03-2014 00:55:00      0.001     0.000     0.008     1.000
  MAY-03-2014 00:56:00      0.002     0.000     0.009     1.000
  MAY-03-2014 00:57:00      0.003     0.000     0.011     1.000
  MAY-03-2014 00:58:00      0.003     0.000     0.013     1.000
  MAY-03-2014 00:59:00      0.005     0.000     0.016     1.000
  MAY-03-2014 01:00:00      0.006     0.000     0.019     1.000
  MAY-03-2014 01:01:00      0.008     0.000     0.023     1.000
  MAY-03-2014 01:02:00      0.011     0.000     0.028     1.000
  MAY-03-2014 01:03:00      0.014     0.000     0.033     1.000
  MAY-03-2014 01:04:00      0.017     0.000     0.038     1.000
  MAY-03-2014 01:05:00      0.021     0.000     0.044     1.000
  MAY-03-2014 01:06:00      0.025     0.000     0.050     1.000
  MAY-03-2014 01:07:00      0.029     0.000     0.056     1.000
  MAY-03-2014 01:08:00      0.033     0.000     0.062     1.000
  MAY-03-2014 01:09:00      0.038     0.000     0.069     1.000
  MAY-03-2014 01:10:00      0.043     0.000     0.075     1.000
  MAY-03-2014 01:11:00      0.048     0.000     0.081     1.000
  MAY-03-2014 01:12:00      0.052     0.000     0.088     1.000
  MAY-03-2014 01:13:00      0.057     0.000     0.095     1.000
  MAY-03-2014 01:14:00      0.062     0.000     0.101     1.000
  MAY-03-2014 01:15:00      0.067     0.000     0.108     1.000
  MAY-03-2014 01:16:00      0.072     0.000     0.114     1.000
  MAY-03-2014 01:17:00      0.076     0.000     0.120     1.000
  MAY-03-2014 01:18:00      0.081     0.000     0.127     1.000
  MAY-03-2014 01:19:00      0.085     0.000     0.133     1.000
  MAY-03-2014 01:20:00      0.089     0.000     0.139     1.000
  MAY-03-2014 01:21:00      0.093     0.000     0.145     1.000
  MAY-03-2014 01:22:00      0.097     0.000     0.151     1.000
  MAY-03-2014 01:23:00      0.101     0.000     0.157     1.000
  MAY-03-2014 01:24:00      0.104     0.000     0.162     1.000
  MAY-03-2014 01:25:00      0.108     0.000     0.168     1.000
  MAY-03-2014 01:26:00      0.112     0.000     0.173     1.000
  MAY-03-2014 01:27:00      0.115     0.000     0.179     1.000
  MAY-03-2014 01:28:00      0.118     0.000     0.184     1.000
  MAY-03-2014 01:29:00      0.122     0.000     0.189     1.000
  MAY-03-2014 01:30:00      0.125     0.000     0.193     1.000
  MAY-03-2014 01:31:00      0.128     0.000     0.198     1.000
  MAY-03-2014 01:32:00      0.130     0.000     0.202     1.000
  MAY-03-2014 01:33:00      0.132     0.000     0.206     1.000
  MAY-03-2014 01:34:00      0.134     0.000     0.210     1.000
  MAY-03-2014 01:35:00      0.135     0.000     0.213     1.000
  MAY-03-2014 01:36:00      0.136     0.000     0.217     1.000
  MAY-03-2014 01:37:00      0.137     0.000     0.220     1.000
  MAY-03-2014 01:38:00      0.137     0.000     0.222     1.000
  MAY-03-2014 01:39:00      0.138     0.000     0.225     1.000
  MAY-03-2014 01:40:00      0.139     0.000     0.228     1.000
  MAY-03-2014 01:41:00      0.140     0.000     0.230     1.000
  MAY-03-2014 01:42:00      0.141     0.000     0.232     1.000
  MAY-03-2014 01:43:00      0.142     0.000     0.234     1.000
  MAY-03-2014 01:44:00      0.143     0.000     0.236     1.000
  MAY-03-2014 01:45:00      0.144     0.000     0.238     1.000
  MAY-03-2014 01:46:00      0.144     0.000     0.240     1.000
  MAY-03-2014 01:47:00      0.145     0.000     0.241     1.000
  MAY-03-2014 01:48:00      0.146     0.000     0.243     1.000
  MAY-03-2014 01:49:00      0.146     0.000     0.244     1.000
  MAY-03-2014 01:50:00      0.147     0.000     0.245     1.000
  MAY-03-2014 01:51:00      0.147     0.000     0.246     1.000
  MAY-03-2014 01:52:00      0.148     0.000     0.248     1.000
  MAY-03-2014 01:53:00      0.148     0.000     0.249     1.000
  MAY-03-2014 01:54:00      0.149     0.000     0.249     1.000
  MAY-03-2014 01:55:00      0.149     0.000     0.250     1.000
  MAY-03-2014 01:56:00      0.149     0.000     0.251     1.000
  MAY-03-2014 01:57:00      0.149     0.000     0.252     1.000
  MAY-03-2014 01:58:00      0.150     0.000     0.253     1.000
  MAY-03-2014 01:59:00      0.150     0.000     0.253     1.000
  MAY-03-2014 02:00:00      0.150     0.000     0.254     1.000
  MAY-03-2014 02:01:00      0.150     0.000     0.254     1.000
  MAY-03-2014 02:02:00      0.150     0.000     0.255     1.000
  MAY-03-2014 02:03:00      0.150     0.000     0.255     1.000
  MAY-03-2014 02:04:00      0.150     0.000     0.256     1.000
  MAY-03-2014 02:05:00      0.150     0.000     0.256     1.000
  MAY-03-2014 02:06:00      0.150     0.000     0.256     1.000
  MAY-03-2014 02:07:00      0.150     0.000     0.257     1.000
  MAY-03-2014 02:08:00      0.150     0.000     0.257     1.000
  MAY-03-2014 02:09:00      0.150     0.000     0.257     1.000
  MAY-03-2014 02:10:00      0.150     0.000     0.257     1.000
  MAY-03-2014 02:11:00      0.150     0.000     0.257     1.000
  MAY-03-2014 02:12:00      0.150     0.000     0.258     1.000
  MAY-03-2014 02:13:00      0.150     0.000     0.258     1.000
  MAY-03-2014 02:14:00      0.150     0.000     0.258     1.000
  MAY-03-2014 02:15:00      0.150     0.000     0.258     1.000
  MAY-03-2014 02:16:00      0.150     0.000     0.258     1.000
  MAY-03-2014 02:17:00      0.150     0.000     0.258     1.000
  MAY-03-2014 02:18:00      0.149     0.000     0.258     1.000
  MAY-03-2014 02:19:00      0.149     0.000     0.258     1.000
  MAY-03-2014 02:20:00      0.149     0.000     0.258     1.000
  MAY-03-2014 02:21:00      0.149     0.000     0.258     1.000
  MAY-03-2014 02:22:00      0.149     0.000     0.258     1.000
  MAY-03-2014 02:23:00      0.149     0.000     0.258     1.000
  MAY-03-2014 02:24:00      0.149     0.000     0.258     1.000
  MAY-03-2014 02:25:00      0.149     0.000     0.258     1.000
  MAY-03-2014 02:26:00      0.148     0.000     0.258     1.000
  MAY-03-2014 02:27:00      0.148     0.000     0.258     1.000
  MAY-03-2014 02:28:00      0.148     0.000     0.258     1.000
  MAY-03-2014 02:29:00      0.148     0.000     0.258     1.000
  MAY-03-2014 02:30:00      0.148     0.000     0.258     1.000
  MAY-03-2014 02:31:00      0.148     0.000     0.258     1.000
  MAY-03-2014 02:32:00      0.148     0.000     0.258     1.000
  MAY-03-2014 02:33:00      0.148     0.000     0.258     1.000
  MAY-03-2014 02:34:00      0.147     0.000     0.257     1.000
  MAY-03-2014 02:35:00      0.147     0.000     0.257     1.000
  MAY-03-2014 02:36:00      0.147     0.000     0.257     1.000
  MAY-03-2014 02:37:00      0.147     0.000     0.257     1.000
  MAY-03-2014 02:38:00      0.147     0.000     0.257     1.000
  MAY-03-2014 02:39:00      0.147     0.000     0.257     1.000
  MAY-03-2014 02:40:00      0.147     0.000     0.257     1.000
  MAY-03-2014 02:41:00      0.147     0.000     0.257     1.000
  MAY-03-2014 02:42:00      0.147     0.000     0.257     1.000
  MAY-03-2014 02:43:00      0.147     0.000     0.257     1.000
  MAY-03-2014 02:44:00      0.146     0.000     0.257     1.000
  MAY-03-2014 02:45:00      0.146     0.000     0.257     1.000
  MAY-03-2014 02:46:00      0.146     0.000     0.256     1.000
  MAY-03-2014 02:47:00      0.146     0.000     0.256     1.000
  MAY-03-2014 02:48:00      0.146     0.000     0.256     1.000
  MAY-03-2014 02:49:00      0.146     0.000     0.256     1.000
  MAY-03-2014 02:50:00      0.146     0.000     0.256     1.000
  MAY-03-2014 02:51:00      0.146     0.000     0.256     1.000
  MAY-03-2014 02:52:00      0.146     0.000     0.256     1.000
  MAY-03-2014 02:53:00      0.146     0.000     0.256     1.000
  MAY-03-2014 02:54:00      0.146     0.000     0.256     1.000
  MAY-03-2014 02:55:00      0.146     0.000     0.256     1.000
  MAY-03-2014 02:56:00      0.146     0.000     0.256     1.000
  MAY-03-2014 02:57:00      0.146     0.000     0.256     1.000
  MAY-03-2014 02:58:00      0.145     0.000     0.256     1.000
  MAY-03-2014 02:59:00      0.145     0.000     0.256     1.000
  MAY-03-2014 03:00:00      0.145     0.000     0.255     1.000
  MAY-03-2014 03:01:00      0.145     0.000     0.255     1.000
  MAY-03-2014 03:02:00      0.145     0.000     0.255     1.000
  MAY-03-2014 03:03:00      0.145     0.000     0.255     1.000
  MAY-03-2014 03:04:00      0.145     0.000     0.255     1.000
  MAY-03-2014 03:05:00      0.145     0.000     0.255     1.000
  MAY-03-2014 03:06:00      0.145     0.000     0.255     1.000
  MAY-03-2014 03:07:00      0.145     0.000     0.255     1.000
  MAY-03-2014 03:08:00      0.145     0.000     0.255     1.000
  MAY-03-2014 03:09:00      0.145     0.000     0.255     1.000
  MAY-03-2014 03:10:00      0.145     0.000     0.255     1.000
  MAY-03-2014 03:11:00      0.145     0.000     0.255     1.000
  MAY-03-2014 03:12:00      0.145     0.000     0.255     1.000
  MAY-03-2014 03:13:00      0.145     0.000     0.255     1.000
  MAY-03-2014 03:14:00      0.145     0.000     0.255     1.000
  MAY-03-2014 03:15:00      0.145     0.000     0.255     1.000
  MAY-03-2014 03:16:00      0.145     0.000     0.255     1.000
  MAY-03-2014 03:17:00      0.145     0.000     0.255     1.000
  MAY-03-2014 03:18:00      0.145     0.000     0.255     1.000
  MAY-03-2014 03:19:00      0.145     0.000     0.255     1.000
  MAY-03-2014 03:20:00      0.145     0.000     0.255     1.000
  MAY-03-2014 03:21:00      0.145     0.000     0.255     1.000
  MAY-03-2014 03:22:00      0.145     0.000     0.255     1.000
  MAY-03-2014 03:23:00      0.145     0.000     0.255     1.000
  MAY-03-2014 03:24:00      0.145     0.000     0.255     1.000
  MAY-03-2014 03:25:00      0.145     0.000     0.255     1.000
  MAY-03-2014 03:26:00      0.145     0.000     0.255     1.000
  MAY-03-2014 03:27:00      0.145     0.000     0.255     1.000
  MAY-03-2014 03:28:00      0.145     0.000     0.255     1.000
  MAY-03-2014 03:29:00      0.145     0.000     0.255     1.000
  MAY-03-2014 03:30:00      0.145     0.000     0.255     1.000
  MAY-03-2014 03:31:00      0.145     0.000     0.255     1.000
  MAY-03-2014 03:32:00      0.145     0.000     0.255     1.000
  MAY-03-2014 03:33:00      0.145     0.000     0.255     1.000
  MAY-03-2014 03:34:00      0.145     0.000     0.255     1.000
  MAY-03-2014 03:35:00      0.145     0.000     0.255     1.000
  MAY-03-2014 03:36:00      0.145     0.000     0.255     1.000
  MAY-03-2014 03:37:00      0.145     0.000     0.255     1.000
  MAY-03-2014 03:38:00      0.145     0.000     0.255     1.000
  MAY-03-2014 03:39:00      0.145     0.000     0.255     1.000
  MAY-03-2014 03:40:00      0.145     0.000     0.255     1.000
  MAY-03-2014 03:41:00      0.145     0.000     0.255     1.000
  MAY-03-2014 03:42:00      0.145     0.000     0.255     1.000
  MAY-03-2014 03:43:00      0.145     0.000     0.255     1.000
  MAY-03-2014 03:44:00      0.145     0.000     0.255     1.000
  MAY-03-2014 03:45:00      0.145     0.000     0.255     1.000
  MAY-03-2014 03:46:00      0.145     0.000     0.255     1.000
  MAY-03-2014 03:47:00      0.145     0.000     0.255     1.000
  MAY-03-2014 03:48:00      0.145     0.000     0.255     1.000
  MAY-03-2014 03:49:00      0.145     0.000     0.255     1.000
  MAY-03-2014 03:50:00      0.145     0.000     0.255     1.000
  MAY-03-2014 03:51:00      0.145     0.000     0.255     1.000
  MAY-03-2014 03:52:00      0.145     0.000     0.255     1.000
  MAY-03-2014 03:53:00      0.145     0.000     0.255     1.000
  MAY-03-2014 03:54:00      0.145     0.000     0.255     1.000
  MAY-03-2014 03:55:00      0.145     0.000     0.255     1.000
  MAY-03-2014 03:56:00      0.145     0.000     0.255     1.000
  MAY-03-2014 03:57:00      0.145     0.000     0.255     1.000
  MAY-03-2014 03:58:00      0.145     0.000     0.255     1.000
  MAY-03-2014 03:59:00      0.145     0.000     0.255     1.000
  MAY-03-2014 04:00:00      0.145     0.000     0.255     1.000
  MAY-03-2014 04:01:00      0.145     0.000     0.255     1.000
  MAY-03-2014 04:02:00      0.145     0.000     0.255     1.000
  MAY-03-2014 04:03:00      0.145     0.000     0.255     1.000
  MAY-03-2014 04:04:00      0.145     0.000     0.255     1.000
  MAY-03-2014 04:05:00      0.145     0.000     0.255     1.000
  MAY-03-2014 04:06:00      0.145     0.000     0.255     1.000
  MAY-03-2014 04:07:00      0.145     0.000     0.255     1.000
  MAY-03-2014 04:08:00      0.145     0.000     0.255     1.000
  MAY-03-2014 04:09:00      0.145     0.000     0.255     1.000
  MAY-03-2014 04:10:00      0.145     0.000     0.255     1.000
  MAY-03-2014 04:11:00      0.145     0.000     0.255     1.000
  MAY-03-2014 04:12:00      0.145     0.000     0.255     1.000
  MAY-03-2014 04:13:00      0.145     0.000     0.255     1.000
  MAY-03-2014 04:14:00      0.145     0.000     0.255     1.000
  MAY-03-2014 04:15:00      0.145     0.000     0.255     1.000
  MAY-03-2014 04:16:00      0.145     0.000     0.255     1.000
  MAY-03-2014 04:17:00      0.145     0.000     0.255     1.000
  MAY-03-2014 04:18:00      0.145     0.000     0.255     1.000
  MAY-03-2014 04:19:00      0.145     0.000     0.255     1.000
  MAY-03-2014 04:20:00      0.145     0.000     0.255     1.000
  MAY-03-2014 04:21:00      0.145     0.000     0.255     1.000
  MAY-03-2014 04:22:00      0.145     0.000     0.255     1.000
  MAY-03-2014 04:23:00      0.145     0.000     0.255     1.000
  MAY-03-2014 04:24:00      0.145     0.000     0.255     1.000
  MAY-03-2014 04:25:00      0.145     0.000     0.255     1.000
  MAY-03-2014 04:26:00      0.145     0.000     0.255     1.000
  MAY-03-2014 04:27:00      0.145     0.000     0.255     1.000
  MAY-03-2014 04:28:00      0.145     0.000     0.255     1.000
  MAY-03-2014 04:29:00      0.145     0.000     0.255     1.000
  MAY-03-2014 04:30:00      0.145     0.000     0.255     1.000
  MAY-03-2014 04:31:00      0.145     0.000     0.255     1.000
  MAY-03-2014 04:32:00      0.145     0.000     0.255     1.000
  MAY-03-2014 04:33:00      0.145     0.000     0.255     1.000
  MAY-03-2014 04:34:00      0.145     0.000     0.255     1.000
  MAY-03-2014 04:35:00      0.145     0.000     0.255     1.000
  MAY-03-2014 04:36:00      0.145     0.000     0.255     1.000
  MAY-03-2014 04:37:00      0.145     0.000     0.255     1.000
  MAY-03-2014 04:38:00      0.145     0.000     0.255     1.000
  MAY-03-2014 04:39:00      0.145     0.000     0.255     1.000
  MAY-03-2014 04:40:00      0.145     0.000     0.255     1.000
  MAY-03-2014 04:41:00      0.145     0.000     0.255     1.000
  MAY-03-2014 04:42:00      0.145     0.000     0.255     1.000
  MAY-03-2014 04:43:00      0.145     0.000     0.255     1.000
  MAY-03-2014 04:44:00      0.145     0.000     0.255     1.000
  MAY-03-2014 04:45:00      0.145     0.000     0.255     1.000
  MAY-03-2014 04:46:00      0.145     0.000     0.255     1.000
  MAY-03-2014 04:47:00      0.145     0.000     0.255     1.000
  MAY-03-2014 04:48:00      0.145     0.000     0.255     1.000
  MAY-03-2014 04:49:00      0.145     0.000     0.255     1.000
  MAY-03-2014 04:50:00      0.145     0.000     0.255     1.000
  MAY-03-2014 04:51:00      0.145     0.000     0.255     1.000
  MAY-03-2014 04:52:00      0.145     0.000     0.255     1.000
  MAY-03-2014 04:53:00      0.145     0.000     0.255     1.000
  MAY-03-2014 04:54:00      0.145     0.000     0.255     1.000
  MAY-03-2014 04:55:00      0.145     0.000     0.255     1.000
  MAY-03-2014 04:56:00      0.145     0.000     0.255     1.000
  MAY-03-2014 04:57:00      0.145     0.000     0.255     1.000
  MAY-03-2014 04:58:00      0.145     0.000     0.255     1.000
  MAY-03-2014 04:59:00      0.145     0.000     0.255     1.000
  MAY-03-2014 05:00:00      0.145     0.000     0.255     1.000
  MAY-03-2014 05:01:00      0.145     0.000     0.255     1.000
  MAY-03-2014 05:02:00      0.145     0.000     0.255     1.000
  MAY-03-2014 05:03:00      0.145     0.000     0.255     1.000
  MAY-03-2014 05:04:00      0.145     0.000     0.255     1.000
  MAY-03-2014 05:05:00      0.145     0.000     0.255     1.000
  MAY-03-2014 05:06:00      0.145     0.000     0.255     1.000
  MAY-03-2014 05:07:00      0.145     0.000     0.255     1.000
  MAY-03-2014 05:08:00      0.145     0.000     0.255     1.000
  MAY-03-2014 05:09:00      0.145     0.000     0.255     1.000
  MAY-03-2014 05:10:00      0.145     0.000     0.255     1.000
  MAY-03-2014 05:11:00      0.145     0.000     0.255     1.000
  MAY-03-2014 05:12:00      0.145     0.000     0.255     1.000
  MAY-03-2014 05:13:00      0.145     0.000     0.255     1.000
  MAY-03-2014 05:14:00      0.145     0.000     0.255     1.000
  MAY-03-2014 05:15:00      0.145     0.000     0.255     1.000
  MAY-03-2014 05:16:00      0.145     0.000     0.255     1.000
  MAY-03-2014 05:17:00      0.145     0.000     0.255     1.000
  MAY-03-2014 05:18:00      0.145     0.000     0.255     1.000
  MAY-03-2014 05:19:00      0.145     0.000     0.255     1.000
  MAY-03-2014 05:20:00      0.145     0.000     0.255     1.000
  MAY-03-2014 05:21:00      0.145     0.000     0.255     1.000
  MAY-03-2014 05:22:00      0.145     0.000     0.255     1.000
  MAY-03-2014 05:23:00      0.145     0.000     0.255     1.000
  MAY-03-2014 05:24:00      0.145     0.000     0.255     1.000
  MAY-03-2014 05:25:00      0.145     0.000     0.255     1.000
  MAY-03-2014 05:26:00      0.145     0.000     0.255     1.000
  MAY-03-2014 05:27:00      0.145     0.000     0.255     1.000
  MAY-03-2014 05:28:00      0.145     0.000     0.255     1.000
  MAY-03-2014 05:29:00      0.145     0.000     0.255     1.000
  MAY-03-2014 05:30:00      0.145     0.000     0.255     1.000
  MAY-03-2014 05:31:00      0.145     0.000     0.255     1.000
  MAY-03-2014 05:32:00      0.145     0.000     0.255     1.000
  MAY-03-2014 05:33:00      0.145     0.000     0.255     1.000
  MAY-03-2014 05:34:00      0.145     0.000     0.255     1.000
  MAY-03-2014 05:35:00      0.145     0.000     0.255     1.000
  MAY-03-2014 05:36:00      0.145     0.000     0.255     1.000
  MAY-03-2014 05:37:00      0.145     0.000     0.255     1.000
  MAY-03-2014 05:38:00      0.145     0.000     0.255     1.000
  MAY-03-2014 05:39:00      0.145     0.000     0.255     1.000
  MAY-03-2014 05:40:00      0.145     0.000     0.255     1.000
  MAY-03-2014 05:41:00      0.145     0.000     0.255     1.000
  MAY-03-2014 05:42:00      0.145     0.000     0.255     1.000
  MAY-03-2014 05:43:00      0.145     0.000     0.255     1.000
  MAY-03-2014 05:44:00      0.145     0.000     0.255     1.000
  MAY-03-2014 05:45:00      0.145     0.000     0.255     1.000
  MAY-03-2014 05:46:00      0.145     0.000     0.255     1.000
  MAY-03-2014 05:47:00      0.145     0.000     0.255     1.000
  MAY-03-2014 05:48:00      0.145     0.000     0.255     1.000
  MAY-03-2014 05:49:00      0.145     0.000     0.255     1.000
  MAY-03-2014 05:50:00      0.145     0.000     0.255     1.000
  MAY-03-2014 05:51:00      0.145     0.000     0.255     1.000
  MAY-03-2014 05:52:00      0.145     0.000     0.255     1.000
  MAY-03-2014 05:53:00      0.145     0.000     0.255     1.000
  MAY-03-2014 05:54:00      0.145     0.000     0.255     1.000
  MAY-03-2014 05:55:00      0.145     0.000     0.255     1.000
  MAY-03-2014 05:56:00      0.145     0.000     0.255     1.000
  MAY-03-2014 05:57:00      0.145     0.000     0.255     1.000
  MAY-03-2014 05:58:00      0.145     0.000     0.255     1.000
  MAY-03-2014 05:59:00      0.145     0.000     0.255     1.000
  MAY-03-2014 06:00:00      0.145     0.000     0.255     1.000
  

  Analysis begun on:  Wed May 27 14:48:29 2015
  Analysis ended on:  Wed May 27 14:48:31 2015
  Total elapsed time: 00:00:02