
  EPA STORM WATER MANAGEMENT MODEL - VERSION 5.1 (Build 5.1.009)
  --------------------------------------------------------------

  WARNING 04: minimum elevation drop used for Conduit C-1
  WARNING 04: minimum elevation drop used for Conduit C-6
  WARNING 02: maximum depth increased for Node N-9
  
  *********************************************************
  NOTE: The summary statistics displayed in this report are
  based on results found at every computational time step,  
  not just on results from each reporting time step.
  *********************************************************
  
  ****************
  Analysis Options
  ****************
  Flow Units ............... CMS
  Process Models:
    Rainfall/Runoff ........ NO
    RDII ................... NO
    Snowmelt ............... NO
    Groundwater ............ NO
    Flow Routing ........... YES
    Ponding Allowed ........ NO
    Water Quality .......... NO
  Flow Routing Method ...... DYNWAVE
  Starting Date ............ MAY-03-2014 00:00:00
  Ending Date .............. MAY-03-2014 12:00:00
  Antecedent Dry Days ...... 0.0
  Report Time Step ......... 00:01:00
  Routing Time Step ........ 1.00 sec
  Variable Time Step ....... YES
  Maximum Trials ........... 8
  Number of Threads ........ 1
  Head Tolerance ........... 0.001500 m
  
  
  **************************        Volume        Volume
  Flow Routing Continuity        hectare-m      10^6 ltr
  **************************     ---------     ---------
  Dry Weather Inflow .......         0.000         0.000
  Wet Weather Inflow .......         0.000         0.000
  Groundwater Inflow .......         0.000         0.000
  RDII Inflow ..............         0.000         0.000
  External Inflow ..........         2.592        25.917
  External Outflow .........         2.014        20.141
  Flooding Loss ............         0.000         0.000
  Evaporation Loss .........         0.000         0.000
  Exfiltration Loss ........         0.000         0.000
  Initial Stored Volume ....         0.000         0.001
  Final Stored Volume ......         0.602         6.023
  Continuity Error (%) .....        -0.949
  
  
  *************************
  Highest Continuity Errors
  *************************
  Node N-9 (7.25%)
  Node N-7 (3.84%)
  Node N-4 (3.71%)
  Node N-6 (3.38%)
  Node N-1 (1.01%)
  
  
  ***************************
  Time-Step Critical Elements
  ***************************
  None
  
  
  ********************************
  Highest Flow Instability Indexes
  ********************************
  All links are stable.
  
  
  *************************
  Routing Time Step Summary
  *************************
  Minimum Time Step           :     0.50 sec
  Average Time Step           :     1.00 sec
  Maximum Time Step           :     1.00 sec
  Percent in Steady State     :     0.00
  Average Iterations per Step :     2.00
  Percent Not Converging      :     0.00
  
  
  ******************
  Node Depth Summary
  ******************
  
  ---------------------------------------------------------------------------------
                                 Average  Maximum  Maximum  Time of Max    Reported
                                   Depth    Depth      HGL   Occurrence   Max Depth
  Node                 Type       Meters   Meters   Meters  days hr:min      Meters
  ---------------------------------------------------------------------------------
  N-5                  JUNCTION     0.18     0.19  2500.19     0  12:00        0.06
  N-6                  JUNCTION     0.04     0.04  2500.04     0  12:00        0.01
  N-7                  JUNCTION     0.12     0.14  2498.78     0  12:00        0.04
  N-9                  JUNCTION     0.32     0.40  2498.40     0  12:00        0.12
  N-1                  JUNCTION     0.34     0.42  2493.42     0  12:00        0.13
  N-4                  JUNCTION     0.04     0.05  2499.04     0  12:00        0.01
  N-8                  JUNCTION     0.17     0.19  2499.18     0  12:00        0.06
  DES-1                OUTFALL      0.34     0.42  2492.42     0  12:00        0.13
  
  
  *******************
  Node Inflow Summary
  *******************
  
  -------------------------------------------------------------------------------------------------
                                  Maximum  Maximum                  Lateral       Total        Flow
                                  Lateral    Total  Time of Max      Inflow      Inflow     Balance
                                   Inflow   Inflow   Occurrence      Volume      Volume       Error
  Node                 Type           CMS      CMS  days hr:min    10^6 ltr    10^6 ltr     Percent
  -------------------------------------------------------------------------------------------------
  N-5                  JUNCTION     0.300    0.300     0  00:00          13          13      11.821
  N-6                  JUNCTION     0.000    0.300     0  12:00           0        11.6       3.494
  N-7                  JUNCTION     0.000    0.300     0  11:59           0        11.2       3.994
  N-9                  JUNCTION     0.000    0.600     0  12:00           0        21.9       7.819
  N-1                  JUNCTION     0.000    0.600     0  12:00           0        20.3       1.015
  N-4                  JUNCTION     0.000    0.300     0  12:00           0        11.6       3.857
  N-8                  JUNCTION     0.300    0.300     0  00:00          13          13      11.714
  DES-1                OUTFALL      0.000    0.600     0  12:00           0        20.1       0.000
  
  
  **********************
  Node Surcharge Summary
  **********************
  
  No nodes were surcharged.
  
  
  *********************
  Node Flooding Summary
  *********************
  
  No nodes were flooded.
  
  
  ***********************
  Outfall Loading Summary
  ***********************
  
  -----------------------------------------------------------
                         Flow       Avg       Max       Total
                         Freq      Flow      Flow      Volume
  Outfall Node           Pcnt       CMS       CMS    10^6 ltr
  -----------------------------------------------------------
  DES-1                 90.52     0.515     0.600      20.141
  -----------------------------------------------------------
  System                90.52     0.515     0.600      20.141
  
  
  ********************
  Link Flow Summary
  ********************
  
  -----------------------------------------------------------------------------
                                 Maximum  Time of Max   Maximum    Max/    Max/
                                  |Flow|   Occurrence   |Veloc|    Full    Full
  Link                 Type          CMS  days hr:min     m/sec    Flow   Depth
  -----------------------------------------------------------------------------
  C-1                  CONDUIT     0.300     0  12:00      0.20    0.06    0.03
  C-2                  CONDUIT     0.300     0  11:59      0.33    0.00    0.02
  C-5                  CONDUIT     0.600     0  12:00      1.63    0.15    0.26
  C-8                  CONDUIT     0.600     0  12:00      2.05    0.44    0.47
  C-11                 CONDUIT     0.300     0  12:00      0.40    0.03    0.13
  C-3                  CONDUIT     0.300     0  11:59      0.32    0.00    0.05
  C-6                  CONDUIT     0.300     0  12:00      0.20    0.06    0.03
  
  
  ***************************
  Flow Classification Summary
  ***************************
  
  -------------------------------------------------------------------------------------
                      Adjusted    ---------- Fraction of Time in Flow Class ---------- 
                       /Actual         Up    Down  Sub   Sup   Up    Down  Norm  Inlet 
  Conduit               Length    Dry  Dry   Dry   Crit  Crit  Crit  Crit  Ltd   Ctrl  
  -------------------------------------------------------------------------------------
  C-1                     1.00   0.00  0.00  0.00  1.00  0.00  0.00  0.00  0.00  0.00
  C-2                     1.00   0.01  0.00  0.00  0.96  0.03  0.00  0.00  0.90  0.00
  C-5                     1.00   0.04  0.00  0.00  0.00  0.00  0.00  0.96  0.00  0.00
  C-8                     1.00   0.05  0.00  0.00  0.07  0.88  0.00  0.00  0.00  0.00
  C-11                    1.00   0.04  0.00  0.00  0.96  0.00  0.00  0.00  0.89  0.00
  C-3                     1.00   0.01  0.00  0.00  0.99  0.00  0.00  0.00  0.90  0.00
  C-6                     1.00   0.00  0.00  0.00  1.00  0.00  0.00  0.00  0.00  0.00
  
  
  *************************
  Conduit Surcharge Summary
  *************************
  
  No conduits were surcharged.
  
  
  ************
  Node Results
  ************
  
  <<< Node N-5 >>>
  ----------------------------------------------------------------
                           Inflow  Flooding     Depth      Head
  Date        Time            CMS       CMS    meters    meters
  ----------------------------------------------------------------
  MAY-03-2014 00:01:00      0.300     0.000     0.004  2500.003
  MAY-03-2014 00:02:00      0.300     0.000     0.006  2500.006
  MAY-03-2014 00:03:00      0.300     0.000     0.009  2500.009
  MAY-03-2014 00:04:00      0.300     0.000     0.011  2500.011
  MAY-03-2014 00:05:00      0.300     0.000     0.014  2500.013
  MAY-03-2014 00:06:00      0.300     0.000     0.016  2500.016
  MAY-03-2014 00:07:00      0.300     0.000     0.018  2500.019
  MAY-03-2014 00:08:00      0.300     0.000     0.021  2500.021
  MAY-03-2014 00:09:00      0.300     0.000     0.023  2500.023
  MAY-03-2014 00:10:00      0.300     0.000     0.026  2500.026
  MAY-03-2014 00:11:00      0.300     0.000     0.028  2500.028
  MAY-03-2014 00:12:00      0.300     0.000     0.031  2500.031
  MAY-03-2014 00:13:00      0.300     0.000     0.033  2500.033
  MAY-03-2014 00:14:00      0.300     0.000     0.036  2500.036
  MAY-03-2014 00:15:00      0.300     0.000     0.038  2500.038
  MAY-03-2014 00:16:00      0.300     0.000     0.041  2500.041
  MAY-03-2014 00:17:00      0.300     0.000     0.043  2500.043
  MAY-03-2014 00:18:00      0.300     0.000     0.045  2500.045
  MAY-03-2014 00:19:00      0.300     0.000     0.048  2500.048
  MAY-03-2014 00:20:00      0.300     0.000     0.050  2500.050
  MAY-03-2014 00:21:00      0.300     0.000     0.053  2500.052
  MAY-03-2014 00:22:00      0.300     0.000     0.055  2500.055
  MAY-03-2014 00:23:00      0.300     0.000     0.057  2500.057
  MAY-03-2014 00:24:00      0.300     0.000     0.060  2500.060
  MAY-03-2014 00:25:00      0.300     0.000     0.062  2500.062
  MAY-03-2014 00:26:00      0.300     0.000     0.064  2500.064
  MAY-03-2014 00:27:00      0.300     0.000     0.066  2500.066
  MAY-03-2014 00:28:00      0.300     0.000     0.069  2500.069
  MAY-03-2014 00:29:00      0.300     0.000     0.071  2500.071
  MAY-03-2014 00:30:00      0.300     0.000     0.073  2500.073
  MAY-03-2014 00:31:00      0.300     0.000     0.075  2500.075
  MAY-03-2014 00:32:00      0.300     0.000     0.077  2500.077
  MAY-03-2014 00:33:00      0.300     0.000     0.080  2500.080
  MAY-03-2014 00:34:00      0.300     0.000     0.082  2500.082
  MAY-03-2014 00:35:00      0.300     0.000     0.084  2500.084
  MAY-03-2014 00:36:00      0.300     0.000     0.086  2500.086
  MAY-03-2014 00:37:00      0.300     0.000     0.088  2500.088
  MAY-03-2014 00:38:00      0.300     0.000     0.090  2500.090
  MAY-03-2014 00:39:00      0.300     0.000     0.092  2500.092
  MAY-03-2014 00:40:00      0.300     0.000     0.094  2500.094
  MAY-03-2014 00:41:00      0.300     0.000     0.096  2500.096
  MAY-03-2014 00:42:00      0.300     0.000     0.098  2500.098
  MAY-03-2014 00:43:00      0.300     0.000     0.100  2500.100
  MAY-03-2014 00:44:00      0.300     0.000     0.102  2500.102
  MAY-03-2014 00:45:00      0.300     0.000     0.104  2500.104
  MAY-03-2014 00:46:00      0.300     0.000     0.106  2500.106
  MAY-03-2014 00:47:00      0.300     0.000     0.108  2500.107
  MAY-03-2014 00:48:00      0.300     0.000     0.109  2500.109
  MAY-03-2014 00:49:00      0.300     0.000     0.111  2500.111
  MAY-03-2014 00:50:00      0.300     0.000     0.113  2500.113
  MAY-03-2014 00:51:00      0.300     0.000     0.115  2500.115
  MAY-03-2014 00:52:00      0.300     0.000     0.116  2500.116
  MAY-03-2014 00:53:00      0.300     0.000     0.118  2500.118
  MAY-03-2014 00:54:00      0.300     0.000     0.120  2500.120
  MAY-03-2014 00:55:00      0.300     0.000     0.121  2500.121
  MAY-03-2014 00:56:00      0.300     0.000     0.123  2500.123
  MAY-03-2014 00:57:00      0.300     0.000     0.124  2500.124
  MAY-03-2014 00:58:00      0.300     0.000     0.126  2500.126
  MAY-03-2014 00:59:00      0.300     0.000     0.127  2500.127
  MAY-03-2014 01:00:00      0.300     0.000     0.129  2500.129
  MAY-03-2014 01:01:00      0.300     0.000     0.130  2500.130
  MAY-03-2014 01:02:00      0.300     0.000     0.132  2500.132
  MAY-03-2014 01:03:00      0.300     0.000     0.133  2500.133
  MAY-03-2014 01:04:00      0.300     0.000     0.135  2500.135
  MAY-03-2014 01:05:00      0.300     0.000     0.136  2500.136
  MAY-03-2014 01:06:00      0.300     0.000     0.137  2500.137
  MAY-03-2014 01:07:00      0.300     0.000     0.139  2500.139
  MAY-03-2014 01:08:00      0.300     0.000     0.140  2500.140
  MAY-03-2014 01:09:00      0.300     0.000     0.141  2500.141
  MAY-03-2014 01:10:00      0.300     0.000     0.142  2500.142
  MAY-03-2014 01:11:00      0.300     0.000     0.143  2500.144
  MAY-03-2014 01:12:00      0.300     0.000     0.145  2500.145
  MAY-03-2014 01:13:00      0.300     0.000     0.146  2500.146
  MAY-03-2014 01:14:00      0.300     0.000     0.147  2500.147
  MAY-03-2014 01:15:00      0.300     0.000     0.148  2500.148
  MAY-03-2014 01:16:00      0.300     0.000     0.149  2500.149
  MAY-03-2014 01:17:00      0.300     0.000     0.150  2500.150
  MAY-03-2014 01:18:00      0.300     0.000     0.151  2500.151
  MAY-03-2014 01:19:00      0.300     0.000     0.152  2500.152
  MAY-03-2014 01:20:00      0.300     0.000     0.153  2500.153
  MAY-03-2014 01:21:00      0.300     0.000     0.154  2500.154
  MAY-03-2014 01:22:00      0.300     0.000     0.155  2500.155
  MAY-03-2014 01:23:00      0.300     0.000     0.156  2500.156
  MAY-03-2014 01:24:00      0.300     0.000     0.157  2500.157
  MAY-03-2014 01:25:00      0.300     0.000     0.158  2500.158
  MAY-03-2014 01:26:00      0.300     0.000     0.158  2500.158
  MAY-03-2014 01:27:00      0.300     0.000     0.159  2500.159
  MAY-03-2014 01:28:00      0.300     0.000     0.160  2500.160
  MAY-03-2014 01:29:00      0.300     0.000     0.161  2500.161
  MAY-03-2014 01:30:00      0.300     0.000     0.162  2500.162
  MAY-03-2014 01:31:00      0.300     0.000     0.162  2500.162
  MAY-03-2014 01:32:00      0.300     0.000     0.163  2500.163
  MAY-03-2014 01:33:00      0.300     0.000     0.164  2500.164
  MAY-03-2014 01:34:00      0.300     0.000     0.165  2500.165
  MAY-03-2014 01:35:00      0.300     0.000     0.165  2500.165
  MAY-03-2014 01:36:00      0.300     0.000     0.166  2500.166
  MAY-03-2014 01:37:00      0.300     0.000     0.166  2500.167
  MAY-03-2014 01:38:00      0.300     0.000     0.167  2500.167
  MAY-03-2014 01:39:00      0.300     0.000     0.168  2500.168
  MAY-03-2014 01:40:00      0.300     0.000     0.168  2500.168
  MAY-03-2014 01:41:00      0.300     0.000     0.169  2500.169
  MAY-03-2014 01:42:00      0.300     0.000     0.169  2500.169
  MAY-03-2014 01:43:00      0.300     0.000     0.170  2500.170
  MAY-03-2014 01:44:00      0.300     0.000     0.170  2500.170
  MAY-03-2014 01:45:00      0.300     0.000     0.171  2500.171
  MAY-03-2014 01:46:00      0.300     0.000     0.171  2500.171
  MAY-03-2014 01:47:00      0.300     0.000     0.172  2500.172
  MAY-03-2014 01:48:00      0.300     0.000     0.172  2500.172
  MAY-03-2014 01:49:00      0.300     0.000     0.173  2500.173
  MAY-03-2014 01:50:00      0.300     0.000     0.173  2500.173
  MAY-03-2014 01:51:00      0.300     0.000     0.174  2500.174
  MAY-03-2014 01:52:00      0.300     0.000     0.174  2500.174
  MAY-03-2014 01:53:00      0.300     0.000     0.175  2500.175
  MAY-03-2014 01:54:00      0.300     0.000     0.175  2500.175
  MAY-03-2014 01:55:00      0.300     0.000     0.175  2500.175
  MAY-03-2014 01:56:00      0.300     0.000     0.176  2500.176
  MAY-03-2014 01:57:00      0.300     0.000     0.176  2500.176
  MAY-03-2014 01:58:00      0.300     0.000     0.176  2500.177
  MAY-03-2014 01:59:00      0.300     0.000     0.177  2500.177
  MAY-03-2014 02:00:00      0.300     0.000     0.177  2500.177
  MAY-03-2014 02:01:00      0.300     0.000     0.177  2500.177
  MAY-03-2014 02:02:00      0.300     0.000     0.178  2500.178
  MAY-03-2014 02:03:00      0.300     0.000     0.178  2500.178
  MAY-03-2014 02:04:00      0.300     0.000     0.178  2500.178
  MAY-03-2014 02:05:00      0.300     0.000     0.179  2500.179
  MAY-03-2014 02:06:00      0.300     0.000     0.179  2500.179
  MAY-03-2014 02:07:00      0.300     0.000     0.179  2500.179
  MAY-03-2014 02:08:00      0.300     0.000     0.179  2500.179
  MAY-03-2014 02:09:00      0.300     0.000     0.180  2500.180
  MAY-03-2014 02:10:00      0.300     0.000     0.180  2500.180
  MAY-03-2014 02:11:00      0.300     0.000     0.180  2500.180
  MAY-03-2014 02:12:00      0.300     0.000     0.180  2500.180
  MAY-03-2014 02:13:00      0.300     0.000     0.181  2500.181
  MAY-03-2014 02:14:00      0.300     0.000     0.181  2500.181
  MAY-03-2014 02:15:00      0.300     0.000     0.181  2500.181
  MAY-03-2014 02:16:00      0.300     0.000     0.181  2500.181
  MAY-03-2014 02:17:00      0.300     0.000     0.182  2500.181
  MAY-03-2014 02:18:00      0.300     0.000     0.182  2500.182
  MAY-03-2014 02:19:00      0.300     0.000     0.182  2500.182
  MAY-03-2014 02:20:00      0.300     0.000     0.182  2500.182
  MAY-03-2014 02:21:00      0.300     0.000     0.182  2500.182
  MAY-03-2014 02:22:00      0.300     0.000     0.182  2500.182
  MAY-03-2014 02:23:00      0.300     0.000     0.183  2500.183
  MAY-03-2014 02:24:00      0.300     0.000     0.183  2500.183
  MAY-03-2014 02:25:00      0.300     0.000     0.183  2500.183
  MAY-03-2014 02:26:00      0.300     0.000     0.183  2500.183
  MAY-03-2014 02:27:00      0.300     0.000     0.183  2500.183
  MAY-03-2014 02:28:00      0.300     0.000     0.183  2500.183
  MAY-03-2014 02:29:00      0.300     0.000     0.184  2500.184
  MAY-03-2014 02:30:00      0.300     0.000     0.184  2500.184
  MAY-03-2014 02:31:00      0.300     0.000     0.184  2500.184
  MAY-03-2014 02:32:00      0.300     0.000     0.184  2500.184
  MAY-03-2014 02:33:00      0.300     0.000     0.184  2500.184
  MAY-03-2014 02:34:00      0.300     0.000     0.184  2500.184
  MAY-03-2014 02:35:00      0.300     0.000     0.184  2500.184
  MAY-03-2014 02:36:00      0.300     0.000     0.184  2500.184
  MAY-03-2014 02:37:00      0.300     0.000     0.184  2500.185
  MAY-03-2014 02:38:00      0.300     0.000     0.185  2500.185
  MAY-03-2014 02:39:00      0.300     0.000     0.185  2500.185
  MAY-03-2014 02:40:00      0.300     0.000     0.185  2500.185
  MAY-03-2014 02:41:00      0.300     0.000     0.185  2500.185
  MAY-03-2014 02:42:00      0.300     0.000     0.185  2500.185
  MAY-03-2014 02:43:00      0.300     0.000     0.185  2500.185
  MAY-03-2014 02:44:00      0.300     0.000     0.185  2500.185
  MAY-03-2014 02:45:00      0.300     0.000     0.185  2500.185
  MAY-03-2014 02:46:00      0.300     0.000     0.185  2500.185
  MAY-03-2014 02:47:00      0.300     0.000     0.185  2500.185
  MAY-03-2014 02:48:00      0.300     0.000     0.185  2500.186
  MAY-03-2014 02:49:00      0.300     0.000     0.186  2500.186
  MAY-03-2014 02:50:00      0.300     0.000     0.186  2500.186
  MAY-03-2014 02:51:00      0.300     0.000     0.186  2500.186
  MAY-03-2014 02:52:00      0.300     0.000     0.186  2500.186
  MAY-03-2014 02:53:00      0.300     0.000     0.186  2500.186
  MAY-03-2014 02:54:00      0.300     0.000     0.186  2500.186
  MAY-03-2014 02:55:00      0.300     0.000     0.186  2500.186
  MAY-03-2014 02:56:00      0.300     0.000     0.186  2500.186
  MAY-03-2014 02:57:00      0.300     0.000     0.186  2500.186
  MAY-03-2014 02:58:00      0.300     0.000     0.186  2500.186
  MAY-03-2014 02:59:00      0.300     0.000     0.186  2500.186
  MAY-03-2014 03:00:00      0.300     0.000     0.186  2500.186
  MAY-03-2014 03:01:00      0.300     0.000     0.186  2500.186
  MAY-03-2014 03:02:00      0.300     0.000     0.186  2500.186
  MAY-03-2014 03:03:00      0.300     0.000     0.186  2500.187
  MAY-03-2014 03:04:00      0.300     0.000     0.186  2500.187
  MAY-03-2014 03:05:00      0.300     0.000     0.187  2500.187
  MAY-03-2014 03:06:00      0.300     0.000     0.187  2500.187
  MAY-03-2014 03:07:00      0.300     0.000     0.187  2500.187
  MAY-03-2014 03:08:00      0.300     0.000     0.187  2500.187
  MAY-03-2014 03:09:00      0.300     0.000     0.187  2500.187
  MAY-03-2014 03:10:00      0.300     0.000     0.187  2500.187
  MAY-03-2014 03:11:00      0.300     0.000     0.187  2500.187
  MAY-03-2014 03:12:00      0.300     0.000     0.187  2500.187
  MAY-03-2014 03:13:00      0.300     0.000     0.187  2500.187
  MAY-03-2014 03:14:00      0.300     0.000     0.187  2500.187
  MAY-03-2014 03:15:00      0.300     0.000     0.187  2500.187
  MAY-03-2014 03:16:00      0.300     0.000     0.187  2500.187
  MAY-03-2014 03:17:00      0.300     0.000     0.187  2500.187
  MAY-03-2014 03:18:00      0.300     0.000     0.187  2500.187
  MAY-03-2014 03:19:00      0.300     0.000     0.187  2500.187
  MAY-03-2014 03:20:00      0.300     0.000     0.187  2500.187
  MAY-03-2014 03:21:00      0.300     0.000     0.187  2500.187
  MAY-03-2014 03:22:00      0.300     0.000     0.187  2500.187
  MAY-03-2014 03:23:00      0.300     0.000     0.187  2500.187
  MAY-03-2014 03:24:00      0.300     0.000     0.187  2500.187
  MAY-03-2014 03:25:00      0.300     0.000     0.187  2500.187
  MAY-03-2014 03:26:00      0.300     0.000     0.187  2500.187
  MAY-03-2014 03:27:00      0.300     0.000     0.187  2500.187
  MAY-03-2014 03:28:00      0.300     0.000     0.187  2500.187
  MAY-03-2014 03:29:00      0.300     0.000     0.187  2500.187
  MAY-03-2014 03:30:00      0.300     0.000     0.187  2500.187
  MAY-03-2014 03:31:00      0.300     0.000     0.187  2500.187
  MAY-03-2014 03:32:00      0.300     0.000     0.187  2500.187
  MAY-03-2014 03:33:00      0.300     0.000     0.187  2500.187
  MAY-03-2014 03:34:00      0.300     0.000     0.187  2500.188
  MAY-03-2014 03:35:00      0.300     0.000     0.187  2500.188
  MAY-03-2014 03:36:00      0.300     0.000     0.187  2500.188
  MAY-03-2014 03:37:00      0.300     0.000     0.187  2500.188
  MAY-03-2014 03:38:00      0.300     0.000     0.187  2500.188
  MAY-03-2014 03:39:00      0.300     0.000     0.187  2500.188
  MAY-03-2014 03:40:00      0.300     0.000     0.187  2500.188
  MAY-03-2014 03:41:00      0.300     0.000     0.188  2500.188
  MAY-03-2014 03:42:00      0.300     0.000     0.188  2500.188
  MAY-03-2014 03:43:00      0.300     0.000     0.188  2500.188
  MAY-03-2014 03:44:00      0.300     0.000     0.188  2500.188
  MAY-03-2014 03:45:00      0.300     0.000     0.188  2500.188
  MAY-03-2014 03:46:00      0.300     0.000     0.188  2500.188
  MAY-03-2014 03:47:00      0.300     0.000     0.188  2500.188
  MAY-03-2014 03:48:00      0.300     0.000     0.188  2500.188
  MAY-03-2014 03:49:00      0.300     0.000     0.188  2500.188
  MAY-03-2014 03:50:00      0.300     0.000     0.188  2500.188
  MAY-03-2014 03:51:00      0.300     0.000     0.188  2500.188
  MAY-03-2014 03:52:00      0.300     0.000     0.188  2500.188
  MAY-03-2014 03:53:00      0.300     0.000     0.188  2500.188
  MAY-03-2014 03:54:00      0.300     0.000     0.188  2500.188
  MAY-03-2014 03:55:00      0.300     0.000     0.188  2500.188
  MAY-03-2014 03:56:00      0.300     0.000     0.188  2500.188
  MAY-03-2014 03:57:00      0.300     0.000     0.188  2500.188
  MAY-03-2014 03:58:00      0.300     0.000     0.188  2500.188
  MAY-03-2014 03:59:00      0.300     0.000     0.188  2500.188
  MAY-03-2014 04:00:00      0.300     0.000     0.188  2500.188
  MAY-03-2014 04:01:00      0.300     0.000     0.188  2500.188
  MAY-03-2014 04:02:00      0.300     0.000     0.188  2500.188
  MAY-03-2014 04:03:00      0.300     0.000     0.188  2500.188
  MAY-03-2014 04:04:00      0.300     0.000     0.188  2500.188
  MAY-03-2014 04:05:00      0.300     0.000     0.188  2500.188
  MAY-03-2014 04:06:00      0.300     0.000     0.188  2500.188
  MAY-03-2014 04:07:00      0.300     0.000     0.188  2500.188
  MAY-03-2014 04:08:00      0.300     0.000     0.188  2500.188
  MAY-03-2014 04:09:00      0.300     0.000     0.188  2500.188
  MAY-03-2014 04:10:00      0.300     0.000     0.188  2500.188
  MAY-03-2014 04:11:00      0.300     0.000     0.188  2500.188
  MAY-03-2014 04:12:00      0.300     0.000     0.188  2500.188
  MAY-03-2014 04:13:00      0.300     0.000     0.188  2500.188
  MAY-03-2014 04:14:00      0.300     0.000     0.188  2500.188
  MAY-03-2014 04:15:00      0.300     0.000     0.188  2500.188
  MAY-03-2014 04:16:00      0.300     0.000     0.188  2500.188
  MAY-03-2014 04:17:00      0.300     0.000     0.188  2500.188
  MAY-03-2014 04:18:00      0.300     0.000     0.188  2500.188
  MAY-03-2014 04:19:00      0.300     0.000     0.188  2500.188
  MAY-03-2014 04:20:00      0.300     0.000     0.188  2500.188
  MAY-03-2014 04:21:00      0.300     0.000     0.188  2500.188
  MAY-03-2014 04:22:00      0.300     0.000     0.188  2500.188
  MAY-03-2014 04:23:00      0.300     0.000     0.188  2500.188
  MAY-03-2014 04:24:00      0.300     0.000     0.188  2500.188
  MAY-03-2014 04:25:00      0.300     0.000     0.188  2500.188
  MAY-03-2014 04:26:00      0.300     0.000     0.188  2500.188
  MAY-03-2014 04:27:00      0.300     0.000     0.188  2500.188
  MAY-03-2014 04:28:00      0.300     0.000     0.188  2500.188
  MAY-03-2014 04:29:00      0.300     0.000     0.188  2500.188
  MAY-03-2014 04:30:00      0.300     0.000     0.188  2500.188
  MAY-03-2014 04:31:00      0.300     0.000     0.188  2500.188
  MAY-03-2014 04:32:00      0.300     0.000     0.188  2500.188
  MAY-03-2014 04:33:00      0.300     0.000     0.188  2500.188
  MAY-03-2014 04:34:00      0.300     0.000     0.188  2500.188
  MAY-03-2014 04:35:00      0.300     0.000     0.188  2500.188
  MAY-03-2014 04:36:00      0.300     0.000     0.188  2500.188
  MAY-03-2014 04:37:00      0.300     0.000     0.188  2500.188
  MAY-03-2014 04:38:00      0.300     0.000     0.188  2500.188
  MAY-03-2014 04:39:00      0.300     0.000     0.188  2500.188
  MAY-03-2014 04:40:00      0.300     0.000     0.188  2500.188
  MAY-03-2014 04:41:00      0.300     0.000     0.188  2500.188
  MAY-03-2014 04:42:00      0.300     0.000     0.188  2500.188
  MAY-03-2014 04:43:00      0.300     0.000     0.188  2500.188
  MAY-03-2014 04:44:00      0.300     0.000     0.188  2500.188
  MAY-03-2014 04:45:00      0.300     0.000     0.188  2500.188
  MAY-03-2014 04:46:00      0.300     0.000     0.188  2500.188
  MAY-03-2014 04:47:00      0.300     0.000     0.188  2500.188
  MAY-03-2014 04:48:00      0.300     0.000     0.188  2500.188
  MAY-03-2014 04:49:00      0.300     0.000     0.188  2500.188
  MAY-03-2014 04:50:00      0.300     0.000     0.188  2500.188
  MAY-03-2014 04:51:00      0.300     0.000     0.188  2500.188
  MAY-03-2014 04:52:00      0.300     0.000     0.188  2500.188
  MAY-03-2014 04:53:00      0.300     0.000     0.188  2500.188
  MAY-03-2014 04:54:00      0.300     0.000     0.188  2500.188
  MAY-03-2014 04:55:00      0.300     0.000     0.188  2500.188
  MAY-03-2014 04:56:00      0.300     0.000     0.188  2500.188
  MAY-03-2014 04:57:00      0.300     0.000     0.188  2500.188
  MAY-03-2014 04:58:00      0.300     0.000     0.188  2500.188
  MAY-03-2014 04:59:00      0.300     0.000     0.188  2500.188
  MAY-03-2014 05:00:00      0.300     0.000     0.188  2500.188
  MAY-03-2014 05:01:00      0.300     0.000     0.188  2500.188
  MAY-03-2014 05:02:00      0.300     0.000     0.188  2500.188
  MAY-03-2014 05:03:00      0.300     0.000     0.188  2500.188
  MAY-03-2014 05:04:00      0.300     0.000     0.188  2500.188
  MAY-03-2014 05:05:00      0.300     0.000     0.188  2500.188
  MAY-03-2014 05:06:00      0.300     0.000     0.188  2500.188
  MAY-03-2014 05:07:00      0.300     0.000     0.188  2500.188
  MAY-03-2014 05:08:00      0.300     0.000     0.188  2500.188
  MAY-03-2014 05:09:00      0.300     0.000     0.188  2500.188
  MAY-03-2014 05:10:00      0.300     0.000     0.188  2500.188
  MAY-03-2014 05:11:00      0.300     0.000     0.188  2500.188
  MAY-03-2014 05:12:00      0.300     0.000     0.188  2500.188
  MAY-03-2014 05:13:00      0.300     0.000     0.188  2500.188
  MAY-03-2014 05:14:00      0.300     0.000     0.188  2500.188
  MAY-03-2014 05:15:00      0.300     0.000     0.188  2500.188
  MAY-03-2014 05:16:00      0.300     0.000     0.188  2500.188
  MAY-03-2014 05:17:00      0.300     0.000     0.188  2500.188
  MAY-03-2014 05:18:00      0.300     0.000     0.188  2500.188
  MAY-03-2014 05:19:00      0.300     0.000     0.188  2500.188
  MAY-03-2014 05:20:00      0.300     0.000     0.188  2500.188
  MAY-03-2014 05:21:00      0.300     0.000     0.188  2500.188
  MAY-03-2014 05:22:00      0.300     0.000     0.188  2500.188
  MAY-03-2014 05:23:00      0.300     0.000     0.188  2500.188
  MAY-03-2014 05:24:00      0.300     0.000     0.188  2500.188
  MAY-03-2014 05:25:00      0.300     0.000     0.188  2500.188
  MAY-03-2014 05:26:00      0.300     0.000     0.188  2500.188
  MAY-03-2014 05:27:00      0.300     0.000     0.188  2500.188
  MAY-03-2014 05:28:00      0.300     0.000     0.188  2500.188
  MAY-03-2014 05:29:00      0.300     0.000     0.188  2500.188
  MAY-03-2014 05:30:00      0.300     0.000     0.188  2500.188
  MAY-03-2014 05:31:00      0.300     0.000     0.188  2500.188
  MAY-03-2014 05:32:00      0.300     0.000     0.188  2500.188
  MAY-03-2014 05:33:00      0.300     0.000     0.188  2500.188
  MAY-03-2014 05:34:00      0.300     0.000     0.188  2500.188
  MAY-03-2014 05:35:00      0.300     0.000     0.188  2500.188
  MAY-03-2014 05:36:00      0.300     0.000     0.188  2500.188
  MAY-03-2014 05:37:00      0.300     0.000     0.188  2500.188
  MAY-03-2014 05:38:00      0.300     0.000     0.188  2500.188
  MAY-03-2014 05:39:00      0.300     0.000     0.188  2500.188
  MAY-03-2014 05:40:00      0.300     0.000     0.188  2500.188
  MAY-03-2014 05:41:00      0.300     0.000     0.188  2500.188
  MAY-03-2014 05:42:00      0.300     0.000     0.188  2500.188
  MAY-03-2014 05:43:00      0.300     0.000     0.188  2500.188
  MAY-03-2014 05:44:00      0.300     0.000     0.188  2500.188
  MAY-03-2014 05:45:00      0.300     0.000     0.188  2500.188
  MAY-03-2014 05:46:00      0.300     0.000     0.188  2500.188
  MAY-03-2014 05:47:00      0.300     0.000     0.188  2500.188
  MAY-03-2014 05:48:00      0.300     0.000     0.188  2500.188
  MAY-03-2014 05:49:00      0.300     0.000     0.188  2500.188
  MAY-03-2014 05:50:00      0.300     0.000     0.188  2500.188
  MAY-03-2014 05:51:00      0.300     0.000     0.188  2500.188
  MAY-03-2014 05:52:00      0.300     0.000     0.188  2500.188
  MAY-03-2014 05:53:00      0.300     0.000     0.188  2500.188
  MAY-03-2014 05:54:00      0.300     0.000     0.188  2500.188
  MAY-03-2014 05:55:00      0.300     0.000     0.188  2500.188
  MAY-03-2014 05:56:00      0.300     0.000     0.188  2500.188
  MAY-03-2014 05:57:00      0.300     0.000     0.188  2500.188
  MAY-03-2014 05:58:00      0.300     0.000     0.188  2500.188
  MAY-03-2014 05:59:00      0.300     0.000     0.188  2500.188
  MAY-03-2014 06:00:00      0.300     0.000     0.188  2500.188
  MAY-03-2014 06:01:00      0.300     0.000     0.188  2500.188
  MAY-03-2014 06:02:00      0.300     0.000     0.188  2500.188
  MAY-03-2014 06:03:00      0.300     0.000     0.188  2500.188
  MAY-03-2014 06:04:00      0.300     0.000     0.188  2500.188
  MAY-03-2014 06:05:00      0.300     0.000     0.188  2500.188
  MAY-03-2014 06:06:00      0.300     0.000     0.188  2500.188
  MAY-03-2014 06:07:00      0.300     0.000     0.188  2500.188
  MAY-03-2014 06:08:00      0.300     0.000     0.188  2500.188
  MAY-03-2014 06:09:00      0.300     0.000     0.188  2500.188
  MAY-03-2014 06:10:00      0.300     0.000     0.188  2500.188
  MAY-03-2014 06:11:00      0.300     0.000     0.188  2500.188
  MAY-03-2014 06:12:00      0.300     0.000     0.188  2500.188
  MAY-03-2014 06:13:00      0.300     0.000     0.188  2500.188
  MAY-03-2014 06:14:00      0.300     0.000     0.188  2500.188
  MAY-03-2014 06:15:00      0.300     0.000     0.188  2500.188
  MAY-03-2014 06:16:00      0.300     0.000     0.188  2500.188
  MAY-03-2014 06:17:00      0.300     0.000     0.188  2500.188
  MAY-03-2014 06:18:00      0.300     0.000     0.188  2500.188
  MAY-03-2014 06:19:00      0.300     0.000     0.188  2500.188
  MAY-03-2014 06:20:00      0.300     0.000     0.188  2500.188
  MAY-03-2014 06:21:00      0.300     0.000     0.188  2500.188
  MAY-03-2014 06:22:00      0.300     0.000     0.188  2500.188
  MAY-03-2014 06:23:00      0.300     0.000     0.188  2500.188
  MAY-03-2014 06:24:00      0.300     0.000     0.188  2500.188
  MAY-03-2014 06:25:00      0.300     0.000     0.188  2500.188
  MAY-03-2014 06:26:00      0.300     0.000     0.188  2500.188
  MAY-03-2014 06:27:00      0.300     0.000     0.188  2500.188
  MAY-03-2014 06:28:00      0.300     0.000     0.188  2500.188
  MAY-03-2014 06:29:00      0.300     0.000     0.188  2500.188
  MAY-03-2014 06:30:00      0.300     0.000     0.188  2500.188
  MAY-03-2014 06:31:00      0.300     0.000     0.188  2500.188
  MAY-03-2014 06:32:00      0.300     0.000     0.188  2500.188
  MAY-03-2014 06:33:00      0.300     0.000     0.188  2500.188
  MAY-03-2014 06:34:00      0.300     0.000     0.188  2500.188
  MAY-03-2014 06:35:00      0.300     0.000     0.188  2500.188
  MAY-03-2014 06:36:00      0.300     0.000     0.188  2500.188
  MAY-03-2014 06:37:00      0.300     0.000     0.188  2500.188
  MAY-03-2014 06:38:00      0.300     0.000     0.188  2500.188
  MAY-03-2014 06:39:00      0.300     0.000     0.188  2500.188
  MAY-03-2014 06:40:00      0.300     0.000     0.188  2500.188
  MAY-03-2014 06:41:00      0.300     0.000     0.188  2500.188
  MAY-03-2014 06:42:00      0.300     0.000     0.188  2500.188
  MAY-03-2014 06:43:00      0.300     0.000     0.188  2500.188
  MAY-03-2014 06:44:00      0.300     0.000     0.188  2500.188
  MAY-03-2014 06:45:00      0.300     0.000     0.188  2500.188
  MAY-03-2014 06:46:00      0.300     0.000     0.188  2500.188
  MAY-03-2014 06:47:00      0.300     0.000     0.188  2500.188
  MAY-03-2014 06:48:00      0.300     0.000     0.188  2500.188
  MAY-03-2014 06:49:00      0.300     0.000     0.188  2500.188
  MAY-03-2014 06:50:00      0.300     0.000     0.188  2500.188
  MAY-03-2014 06:51:00      0.300     0.000     0.188  2500.188
  MAY-03-2014 06:52:00      0.300     0.000     0.188  2500.188
  MAY-03-2014 06:53:00      0.300     0.000     0.188  2500.188
  MAY-03-2014 06:54:00      0.300     0.000     0.188  2500.188
  MAY-03-2014 06:55:00      0.300     0.000     0.188  2500.188
  MAY-03-2014 06:56:00      0.300     0.000     0.188  2500.188
  MAY-03-2014 06:57:00      0.300     0.000     0.188  2500.188
  MAY-03-2014 06:58:00      0.300     0.000     0.188  2500.188
  MAY-03-2014 06:59:00      0.300     0.000     0.188  2500.188
  MAY-03-2014 07:00:00      0.300     0.000     0.188  2500.188
  MAY-03-2014 07:01:00      0.300     0.000     0.188  2500.188
  MAY-03-2014 07:02:00      0.300     0.000     0.188  2500.188
  MAY-03-2014 07:03:00      0.300     0.000     0.188  2500.188
  MAY-03-2014 07:04:00      0.300     0.000     0.188  2500.188
  MAY-03-2014 07:05:00      0.300     0.000     0.188  2500.188
  MAY-03-2014 07:06:00      0.300     0.000     0.188  2500.188
  MAY-03-2014 07:07:00      0.300     0.000     0.188  2500.188
  MAY-03-2014 07:08:00      0.300     0.000     0.188  2500.188
  MAY-03-2014 07:09:00      0.300     0.000     0.188  2500.188
  MAY-03-2014 07:10:00      0.300     0.000     0.188  2500.188
  MAY-03-2014 07:11:00      0.300     0.000     0.188  2500.188
  MAY-03-2014 07:12:00      0.300     0.000     0.188  2500.188
  MAY-03-2014 07:13:00      0.300     0.000     0.188  2500.188
  MAY-03-2014 07:14:00      0.300     0.000     0.188  2500.188
  MAY-03-2014 07:15:00      0.300     0.000     0.188  2500.188
  MAY-03-2014 07:16:00      0.300     0.000     0.188  2500.188
  MAY-03-2014 07:17:00      0.300     0.000     0.188  2500.188
  MAY-03-2014 07:18:00      0.300     0.000     0.188  2500.188
  MAY-03-2014 07:19:00      0.300     0.000     0.188  2500.188
  MAY-03-2014 07:20:00      0.300     0.000     0.188  2500.188
  MAY-03-2014 07:21:00      0.300     0.000     0.188  2500.188
  MAY-03-2014 07:22:00      0.300     0.000     0.188  2500.188
  MAY-03-2014 07:23:00      0.300     0.000     0.188  2500.188
  MAY-03-2014 07:24:00      0.300     0.000     0.188  2500.188
  MAY-03-2014 07:25:00      0.300     0.000     0.188  2500.188
  MAY-03-2014 07:26:00      0.300     0.000     0.188  2500.188
  MAY-03-2014 07:27:00      0.300     0.000     0.188  2500.188
  MAY-03-2014 07:28:00      0.300     0.000     0.188  2500.188
  MAY-03-2014 07:29:00      0.300     0.000     0.188  2500.188
  MAY-03-2014 07:30:00      0.300     0.000     0.188  2500.188
  MAY-03-2014 07:31:00      0.300     0.000     0.188  2500.188
  MAY-03-2014 07:32:00      0.300     0.000     0.188  2500.188
  MAY-03-2014 07:33:00      0.300     0.000     0.188  2500.188
  MAY-03-2014 07:34:00      0.300     0.000     0.188  2500.188
  MAY-03-2014 07:35:00      0.300     0.000     0.188  2500.188
  MAY-03-2014 07:36:00      0.300     0.000     0.188  2500.188
  MAY-03-2014 07:37:00      0.300     0.000     0.188  2500.188
  MAY-03-2014 07:38:00      0.300     0.000     0.188  2500.188
  MAY-03-2014 07:39:00      0.300     0.000     0.188  2500.188
  MAY-03-2014 07:40:00      0.300     0.000     0.188  2500.188
  MAY-03-2014 07:41:00      0.300     0.000     0.188  2500.188
  MAY-03-2014 07:42:00      0.300     0.000     0.188  2500.188
  MAY-03-2014 07:43:00      0.300     0.000     0.188  2500.188
  MAY-03-2014 07:44:00      0.300     0.000     0.188  2500.188
  MAY-03-2014 07:45:00      0.300     0.000     0.188  2500.188
  MAY-03-2014 07:46:00      0.300     0.000     0.188  2500.188
  MAY-03-2014 07:47:00      0.300     0.000     0.188  2500.188
  MAY-03-2014 07:48:00      0.300     0.000     0.188  2500.188
  MAY-03-2014 07:49:00      0.300     0.000     0.188  2500.188
  MAY-03-2014 07:50:00      0.300     0.000     0.188  2500.188
  MAY-03-2014 07:51:00      0.300     0.000     0.188  2500.188
  MAY-03-2014 07:52:00      0.300     0.000     0.188  2500.188
  MAY-03-2014 07:53:00      0.300     0.000     0.188  2500.188
  MAY-03-2014 07:54:00      0.300     0.000     0.188  2500.188
  MAY-03-2014 07:55:00      0.300     0.000     0.188  2500.188
  MAY-03-2014 07:56:00      0.300     0.000     0.188  2500.188
  MAY-03-2014 07:57:00      0.300     0.000     0.188  2500.188
  MAY-03-2014 07:58:00      0.300     0.000     0.188  2500.188
  MAY-03-2014 07:59:00      0.300     0.000     0.188  2500.188
  MAY-03-2014 08:00:00      0.300     0.000     0.188  2500.188
  MAY-03-2014 08:01:00      0.300     0.000     0.188  2500.188
  MAY-03-2014 08:02:00      0.300     0.000     0.188  2500.188
  MAY-03-2014 08:03:00      0.300     0.000     0.188  2500.188
  MAY-03-2014 08:04:00      0.300     0.000     0.188  2500.188
  MAY-03-2014 08:05:00      0.300     0.000     0.188  2500.188
  MAY-03-2014 08:06:00      0.300     0.000     0.188  2500.188
  MAY-03-2014 08:07:00      0.300     0.000     0.188  2500.188
  MAY-03-2014 08:08:00      0.300     0.000     0.188  2500.188
  MAY-03-2014 08:09:00      0.300     0.000     0.188  2500.188
  MAY-03-2014 08:10:00      0.300     0.000     0.188  2500.188
  MAY-03-2014 08:11:00      0.300     0.000     0.188  2500.188
  MAY-03-2014 08:12:00      0.300     0.000     0.188  2500.188
  MAY-03-2014 08:13:00      0.300     0.000     0.188  2500.188
  MAY-03-2014 08:14:00      0.300     0.000     0.188  2500.188
  MAY-03-2014 08:15:00      0.300     0.000     0.188  2500.188
  MAY-03-2014 08:16:00      0.300     0.000     0.188  2500.188
  MAY-03-2014 08:17:00      0.300     0.000     0.188  2500.188
  MAY-03-2014 08:18:00      0.300     0.000     0.188  2500.188
  MAY-03-2014 08:19:00      0.300     0.000     0.188  2500.188
  MAY-03-2014 08:20:00      0.300     0.000     0.188  2500.188
  MAY-03-2014 08:21:00      0.300     0.000     0.188  2500.188
  MAY-03-2014 08:22:00      0.300     0.000     0.188  2500.188
  MAY-03-2014 08:23:00      0.300     0.000     0.188  2500.188
  MAY-03-2014 08:24:00      0.300     0.000     0.188  2500.188
  MAY-03-2014 08:25:00      0.300     0.000     0.188  2500.188
  MAY-03-2014 08:26:00      0.300     0.000     0.188  2500.188
  MAY-03-2014 08:27:00      0.300     0.000     0.188  2500.188
  MAY-03-2014 08:28:00      0.300     0.000     0.188  2500.188
  MAY-03-2014 08:29:00      0.300     0.000     0.188  2500.188
  MAY-03-2014 08:30:00      0.300     0.000     0.188  2500.188
  MAY-03-2014 08:31:00      0.300     0.000     0.188  2500.188
  MAY-03-2014 08:32:00      0.300     0.000     0.188  2500.188
  MAY-03-2014 08:33:00      0.300     0.000     0.188  2500.188
  MAY-03-2014 08:34:00      0.300     0.000     0.188  2500.188
  MAY-03-2014 08:35:00      0.300     0.000     0.188  2500.188
  MAY-03-2014 08:36:00      0.300     0.000     0.188  2500.188
  MAY-03-2014 08:37:00      0.300     0.000     0.188  2500.188
  MAY-03-2014 08:38:00      0.300     0.000     0.188  2500.188
  MAY-03-2014 08:39:00      0.300     0.000     0.188  2500.188
  MAY-03-2014 08:40:00      0.300     0.000     0.188  2500.188
  MAY-03-2014 08:41:00      0.300     0.000     0.188  2500.188
  MAY-03-2014 08:42:00      0.300     0.000     0.188  2500.188
  MAY-03-2014 08:43:00      0.300     0.000     0.188  2500.188
  MAY-03-2014 08:44:00      0.300     0.000     0.188  2500.188
  MAY-03-2014 08:45:00      0.300     0.000     0.188  2500.188
  MAY-03-2014 08:46:00      0.300     0.000     0.188  2500.188
  MAY-03-2014 08:47:00      0.300     0.000     0.188  2500.188
  MAY-03-2014 08:48:00      0.300     0.000     0.188  2500.188
  MAY-03-2014 08:49:00      0.300     0.000     0.188  2500.188
  MAY-03-2014 08:50:00      0.300     0.000     0.188  2500.188
  MAY-03-2014 08:51:00      0.300     0.000     0.188  2500.188
  MAY-03-2014 08:52:00      0.300     0.000     0.188  2500.188
  MAY-03-2014 08:53:00      0.300     0.000     0.188  2500.188
  MAY-03-2014 08:54:00      0.300     0.000     0.188  2500.188
  MAY-03-2014 08:55:00      0.300     0.000     0.188  2500.188
  MAY-03-2014 08:56:00      0.300     0.000     0.188  2500.188
  MAY-03-2014 08:57:00      0.300     0.000     0.188  2500.188
  MAY-03-2014 08:58:00      0.300     0.000     0.188  2500.188
  MAY-03-2014 08:59:00      0.300     0.000     0.188  2500.188
  MAY-03-2014 09:00:00      0.300     0.000     0.188  2500.188
  MAY-03-2014 09:01:00      0.300     0.000     0.188  2500.188
  MAY-03-2014 09:02:00      0.300     0.000     0.188  2500.188
  MAY-03-2014 09:03:00      0.300     0.000     0.188  2500.188
  MAY-03-2014 09:04:00      0.300     0.000     0.188  2500.188
  MAY-03-2014 09:05:00      0.300     0.000     0.188  2500.188
  MAY-03-2014 09:06:00      0.300     0.000     0.188  2500.188
  MAY-03-2014 09:07:00      0.300     0.000     0.188  2500.188
  MAY-03-2014 09:08:00      0.300     0.000     0.188  2500.188
  MAY-03-2014 09:09:00      0.300     0.000     0.188  2500.188
  MAY-03-2014 09:10:00      0.300     0.000     0.188  2500.188
  MAY-03-2014 09:11:00      0.300     0.000     0.188  2500.188
  MAY-03-2014 09:12:00      0.300     0.000     0.188  2500.188
  MAY-03-2014 09:13:00      0.300     0.000     0.188  2500.188
  MAY-03-2014 09:14:00      0.300     0.000     0.188  2500.188
  MAY-03-2014 09:15:00      0.300     0.000     0.188  2500.188
  MAY-03-2014 09:16:00      0.300     0.000     0.188  2500.188
  MAY-03-2014 09:17:00      0.300     0.000     0.188  2500.188
  MAY-03-2014 09:18:00      0.300     0.000     0.188  2500.188
  MAY-03-2014 09:19:00      0.300     0.000     0.188  2500.188
  MAY-03-2014 09:20:00      0.300     0.000     0.188  2500.188
  MAY-03-2014 09:21:00      0.300     0.000     0.188  2500.188
  MAY-03-2014 09:22:00      0.300     0.000     0.188  2500.188
  MAY-03-2014 09:23:00      0.300     0.000     0.188  2500.188
  MAY-03-2014 09:24:00      0.300     0.000     0.188  2500.188
  MAY-03-2014 09:25:00      0.300     0.000     0.188  2500.188
  MAY-03-2014 09:26:00      0.300     0.000     0.188  2500.188
  MAY-03-2014 09:27:00      0.300     0.000     0.188  2500.188
  MAY-03-2014 09:28:00      0.300     0.000     0.188  2500.188
  MAY-03-2014 09:29:00      0.300     0.000     0.188  2500.188
  MAY-03-2014 09:30:00      0.300     0.000     0.188  2500.188
  MAY-03-2014 09:31:00      0.300     0.000     0.188  2500.188
  MAY-03-2014 09:32:00      0.300     0.000     0.188  2500.188
  MAY-03-2014 09:33:00      0.300     0.000     0.188  2500.188
  MAY-03-2014 09:34:00      0.300     0.000     0.188  2500.188
  MAY-03-2014 09:35:00      0.300     0.000     0.188  2500.188
  MAY-03-2014 09:36:00      0.300     0.000     0.188  2500.188
  MAY-03-2014 09:37:00      0.300     0.000     0.188  2500.188
  MAY-03-2014 09:38:00      0.300     0.000     0.188  2500.188
  MAY-03-2014 09:39:00      0.300     0.000     0.188  2500.188
  MAY-03-2014 09:40:00      0.300     0.000     0.188  2500.188
  MAY-03-2014 09:41:00      0.300     0.000     0.188  2500.188
  MAY-03-2014 09:42:00      0.300     0.000     0.188  2500.188
  MAY-03-2014 09:43:00      0.300     0.000     0.188  2500.188
  MAY-03-2014 09:44:00      0.300     0.000     0.188  2500.188
  MAY-03-2014 09:45:00      0.300     0.000     0.188  2500.188
  MAY-03-2014 09:46:00      0.300     0.000     0.188  2500.188
  MAY-03-2014 09:47:00      0.300     0.000     0.188  2500.188
  MAY-03-2014 09:48:00      0.300     0.000     0.188  2500.188
  MAY-03-2014 09:49:00      0.300     0.000     0.188  2500.188
  MAY-03-2014 09:50:00      0.300     0.000     0.188  2500.188
  MAY-03-2014 09:51:00      0.300     0.000     0.188  2500.188
  MAY-03-2014 09:52:00      0.300     0.000     0.188  2500.188
  MAY-03-2014 09:53:00      0.300     0.000     0.188  2500.188
  MAY-03-2014 09:54:00      0.300     0.000     0.188  2500.188
  MAY-03-2014 09:55:00      0.300     0.000     0.188  2500.188
  MAY-03-2014 09:56:00      0.300     0.000     0.188  2500.188
  MAY-03-2014 09:57:00      0.300     0.000     0.188  2500.188
  MAY-03-2014 09:58:00      0.300     0.000     0.188  2500.188
  MAY-03-2014 09:59:00      0.300     0.000     0.188  2500.188
  MAY-03-2014 10:00:00      0.300     0.000     0.188  2500.188
  MAY-03-2014 10:01:00      0.300     0.000     0.188  2500.188
  MAY-03-2014 10:02:00      0.300     0.000     0.188  2500.188
  MAY-03-2014 10:03:00      0.300     0.000     0.188  2500.188
  MAY-03-2014 10:04:00      0.300     0.000     0.188  2500.188
  MAY-03-2014 10:05:00      0.300     0.000     0.188  2500.188
  MAY-03-2014 10:06:00      0.300     0.000     0.188  2500.188
  MAY-03-2014 10:07:00      0.300     0.000     0.188  2500.188
  MAY-03-2014 10:08:00      0.300     0.000     0.188  2500.188
  MAY-03-2014 10:09:00      0.300     0.000     0.188  2500.188
  MAY-03-2014 10:10:00      0.300     0.000     0.188  2500.188
  MAY-03-2014 10:11:00      0.300     0.000     0.188  2500.188
  MAY-03-2014 10:12:00      0.300     0.000     0.188  2500.188
  MAY-03-2014 10:13:00      0.300     0.000     0.188  2500.188
  MAY-03-2014 10:14:00      0.300     0.000     0.188  2500.188
  MAY-03-2014 10:15:00      0.300     0.000     0.188  2500.188
  MAY-03-2014 10:16:00      0.300     0.000     0.188  2500.188
  MAY-03-2014 10:17:00      0.300     0.000     0.188  2500.188
  MAY-03-2014 10:18:00      0.300     0.000     0.188  2500.188
  MAY-03-2014 10:19:00      0.300     0.000     0.188  2500.188
  MAY-03-2014 10:20:00      0.300     0.000     0.188  2500.188
  MAY-03-2014 10:21:00      0.300     0.000     0.188  2500.188
  MAY-03-2014 10:22:00      0.300     0.000     0.188  2500.188
  MAY-03-2014 10:23:00      0.300     0.000     0.188  2500.188
  MAY-03-2014 10:24:00      0.300     0.000     0.188  2500.188
  MAY-03-2014 10:25:00      0.300     0.000     0.188  2500.188
  MAY-03-2014 10:26:00      0.300     0.000     0.188  2500.188
  MAY-03-2014 10:27:00      0.300     0.000     0.188  2500.188
  MAY-03-2014 10:28:00      0.300     0.000     0.188  2500.188
  MAY-03-2014 10:29:00      0.300     0.000     0.188  2500.188
  MAY-03-2014 10:30:00      0.300     0.000     0.188  2500.188
  MAY-03-2014 10:31:00      0.300     0.000     0.188  2500.188
  MAY-03-2014 10:32:00      0.300     0.000     0.188  2500.188
  MAY-03-2014 10:33:00      0.300     0.000     0.188  2500.188
  MAY-03-2014 10:34:00      0.300     0.000     0.188  2500.188
  MAY-03-2014 10:35:00      0.300     0.000     0.188  2500.188
  MAY-03-2014 10:36:00      0.300     0.000     0.188  2500.188
  MAY-03-2014 10:37:00      0.300     0.000     0.188  2500.188
  MAY-03-2014 10:38:00      0.300     0.000     0.188  2500.188
  MAY-03-2014 10:39:00      0.300     0.000     0.188  2500.188
  MAY-03-2014 10:40:00      0.300     0.000     0.188  2500.188
  MAY-03-2014 10:41:00      0.300     0.000     0.188  2500.188
  MAY-03-2014 10:42:00      0.300     0.000     0.188  2500.188
  MAY-03-2014 10:43:00      0.300     0.000     0.188  2500.188
  MAY-03-2014 10:44:00      0.300     0.000     0.188  2500.188
  MAY-03-2014 10:45:00      0.300     0.000     0.188  2500.188
  MAY-03-2014 10:46:00      0.300     0.000     0.188  2500.188
  MAY-03-2014 10:47:00      0.300     0.000     0.188  2500.188
  MAY-03-2014 10:48:00      0.300     0.000     0.188  2500.188
  MAY-03-2014 10:49:00      0.300     0.000     0.188  2500.188
  MAY-03-2014 10:50:00      0.300     0.000     0.188  2500.188
  MAY-03-2014 10:51:00      0.300     0.000     0.188  2500.188
  MAY-03-2014 10:52:00      0.300     0.000     0.188  2500.188
  MAY-03-2014 10:53:00      0.300     0.000     0.188  2500.188
  MAY-03-2014 10:54:00      0.300     0.000     0.188  2500.188
  MAY-03-2014 10:55:00      0.300     0.000     0.188  2500.188
  MAY-03-2014 10:56:00      0.300     0.000     0.188  2500.188
  MAY-03-2014 10:57:00      0.300     0.000     0.188  2500.188
  MAY-03-2014 10:58:00      0.300     0.000     0.188  2500.188
  MAY-03-2014 10:59:00      0.300     0.000     0.188  2500.188
  MAY-03-2014 11:00:00      0.300     0.000     0.188  2500.188
  MAY-03-2014 11:01:00      0.300     0.000     0.188  2500.188
  MAY-03-2014 11:02:00      0.300     0.000     0.188  2500.188
  MAY-03-2014 11:03:00      0.300     0.000     0.188  2500.188
  MAY-03-2014 11:04:00      0.300     0.000     0.188  2500.188
  MAY-03-2014 11:05:00      0.300     0.000     0.188  2500.188
  MAY-03-2014 11:06:00      0.300     0.000     0.188  2500.188
  MAY-03-2014 11:07:00      0.300     0.000     0.188  2500.188
  MAY-03-2014 11:08:00      0.300     0.000     0.188  2500.188
  MAY-03-2014 11:09:00      0.300     0.000     0.188  2500.188
  MAY-03-2014 11:10:00      0.300     0.000     0.188  2500.188
  MAY-03-2014 11:11:00      0.300     0.000     0.188  2500.188
  MAY-03-2014 11:12:00      0.300     0.000     0.188  2500.188
  MAY-03-2014 11:13:00      0.300     0.000     0.188  2500.188
  MAY-03-2014 11:14:00      0.300     0.000     0.188  2500.188
  MAY-03-2014 11:15:00      0.300     0.000     0.188  2500.188
  MAY-03-2014 11:16:00      0.300     0.000     0.188  2500.188
  MAY-03-2014 11:17:00      0.300     0.000     0.188  2500.188
  MAY-03-2014 11:18:00      0.300     0.000     0.188  2500.188
  MAY-03-2014 11:19:00      0.300     0.000     0.188  2500.188
  MAY-03-2014 11:20:00      0.300     0.000     0.188  2500.188
  MAY-03-2014 11:21:00      0.300     0.000     0.188  2500.188
  MAY-03-2014 11:22:00      0.300     0.000     0.188  2500.188
  MAY-03-2014 11:23:00      0.300     0.000     0.188  2500.188
  MAY-03-2014 11:24:00      0.300     0.000     0.188  2500.188
  MAY-03-2014 11:25:00      0.300     0.000     0.188  2500.188
  MAY-03-2014 11:26:00      0.300     0.000     0.188  2500.188
  MAY-03-2014 11:27:00      0.300     0.000     0.188  2500.188
  MAY-03-2014 11:28:00      0.300     0.000     0.188  2500.188
  MAY-03-2014 11:29:00      0.300     0.000     0.188  2500.188
  MAY-03-2014 11:30:00      0.300     0.000     0.188  2500.188
  MAY-03-2014 11:31:00      0.300     0.000     0.188  2500.188
  MAY-03-2014 11:32:00      0.300     0.000     0.188  2500.188
  MAY-03-2014 11:33:00      0.300     0.000     0.188  2500.188
  MAY-03-2014 11:34:00      0.300     0.000     0.188  2500.188
  MAY-03-2014 11:35:00      0.300     0.000     0.188  2500.188
  MAY-03-2014 11:36:00      0.300     0.000     0.188  2500.188
  MAY-03-2014 11:37:00      0.300     0.000     0.188  2500.188
  MAY-03-2014 11:38:00      0.300     0.000     0.188  2500.188
  MAY-03-2014 11:39:00      0.300     0.000     0.188  2500.188
  MAY-03-2014 11:40:00      0.300     0.000     0.188  2500.188
  MAY-03-2014 11:41:00      0.300     0.000     0.188  2500.188
  MAY-03-2014 11:42:00      0.300     0.000     0.188  2500.188
  MAY-03-2014 11:43:00      0.300     0.000     0.188  2500.188
  MAY-03-2014 11:44:00      0.300     0.000     0.188  2500.188
  MAY-03-2014 11:45:00      0.300     0.000     0.188  2500.188
  MAY-03-2014 11:46:00      0.300     0.000     0.188  2500.188
  MAY-03-2014 11:47:00      0.300     0.000     0.188  2500.188
  MAY-03-2014 11:48:00      0.300     0.000     0.188  2500.188
  MAY-03-2014 11:49:00      0.300     0.000     0.188  2500.188
  MAY-03-2014 11:50:00      0.300     0.000     0.188  2500.188
  MAY-03-2014 11:51:00      0.300     0.000     0.188  2500.188
  MAY-03-2014 11:52:00      0.300     0.000     0.188  2500.188
  MAY-03-2014 11:53:00      0.300     0.000     0.188  2500.188
  MAY-03-2014 11:54:00      0.300     0.000     0.188  2500.188
  MAY-03-2014 11:55:00      0.300     0.000     0.188  2500.188
  MAY-03-2014 11:56:00      0.300     0.000     0.188  2500.188
  MAY-03-2014 11:57:00      0.300     0.000     0.188  2500.188
  MAY-03-2014 11:58:00      0.300     0.000     0.188  2500.188
  MAY-03-2014 11:59:00      0.300     0.000     0.188  2500.188
  MAY-03-2014 12:00:00      0.300     0.000     0.188  2500.188
  
  
  <<< Node N-6 >>>
  ----------------------------------------------------------------
                           Inflow  Flooding     Depth      Head
  Date        Time            CMS       CMS    meters    meters
  ----------------------------------------------------------------
  MAY-03-2014 00:01:00      0.000     0.000     0.000  2500.000
  MAY-03-2014 00:02:00      0.000     0.000     0.000  2500.000
  MAY-03-2014 00:03:00      0.000     0.000     0.000  2500.000
  MAY-03-2014 00:04:00      0.000     0.000     0.000  2500.000
  MAY-03-2014 00:05:00      0.001     0.000     0.000  2500.000
  MAY-03-2014 00:06:00      0.001     0.000     0.000  2500.000
  MAY-03-2014 00:07:00      0.001     0.000     0.000  2500.000
  MAY-03-2014 00:08:00      0.002     0.000     0.000  2500.000
  MAY-03-2014 00:09:00      0.002     0.000     0.000  2500.000
  MAY-03-2014 00:10:00      0.003     0.000     0.000  2500.000
  MAY-03-2014 00:11:00      0.004     0.000     0.000  2500.000
  MAY-03-2014 00:12:00      0.005     0.000     0.000  2500.000
  MAY-03-2014 00:13:00      0.005     0.000     0.000  2500.000
  MAY-03-2014 00:14:00      0.006     0.000     0.000  2500.000
  MAY-03-2014 00:15:00      0.007     0.000     0.000  2500.000
  MAY-03-2014 00:16:00      0.008     0.000     0.000  2500.000
  MAY-03-2014 00:17:00      0.010     0.000     0.000  2500.000
  MAY-03-2014 00:18:00      0.011     0.000     0.000  2500.000
  MAY-03-2014 00:19:00      0.012     0.000     0.000  2500.000
  MAY-03-2014 00:20:00      0.014     0.000     0.001  2500.000
  MAY-03-2014 00:21:00      0.015     0.000     0.001  2500.001
  MAY-03-2014 00:22:00      0.017     0.000     0.001  2500.001
  MAY-03-2014 00:23:00      0.018     0.000     0.001  2500.001
  MAY-03-2014 00:24:00      0.020     0.000     0.001  2500.001
  MAY-03-2014 00:25:00      0.022     0.000     0.001  2500.001
  MAY-03-2014 00:26:00      0.024     0.000     0.001  2500.001
  MAY-03-2014 00:27:00      0.026     0.000     0.001  2500.001
  MAY-03-2014 00:28:00      0.028     0.000     0.002  2500.001
  MAY-03-2014 00:29:00      0.030     0.000     0.002  2500.002
  MAY-03-2014 00:30:00      0.032     0.000     0.002  2500.002
  MAY-03-2014 00:31:00      0.034     0.000     0.002  2500.002
  MAY-03-2014 00:32:00      0.036     0.000     0.002  2500.002
  MAY-03-2014 00:33:00      0.039     0.000     0.003  2500.003
  MAY-03-2014 00:34:00      0.041     0.000     0.003  2500.003
  MAY-03-2014 00:35:00      0.043     0.000     0.003  2500.003
  MAY-03-2014 00:36:00      0.046     0.000     0.003  2500.003
  MAY-03-2014 00:37:00      0.049     0.000     0.004  2500.004
  MAY-03-2014 00:38:00      0.051     0.000     0.004  2500.004
  MAY-03-2014 00:39:00      0.054     0.000     0.004  2500.004
  MAY-03-2014 00:40:00      0.057     0.000     0.005  2500.005
  MAY-03-2014 00:41:00      0.059     0.000     0.005  2500.005
  MAY-03-2014 00:42:00      0.062     0.000     0.005  2500.005
  MAY-03-2014 00:43:00      0.065     0.000     0.006  2500.006
  MAY-03-2014 00:44:00      0.068     0.000     0.006  2500.006
  MAY-03-2014 00:45:00      0.071     0.000     0.006  2500.006
  MAY-03-2014 00:46:00      0.074     0.000     0.007  2500.007
  MAY-03-2014 00:47:00      0.077     0.000     0.007  2500.007
  MAY-03-2014 00:48:00      0.080     0.000     0.008  2500.008
  MAY-03-2014 00:49:00      0.083     0.000     0.008  2500.008
  MAY-03-2014 00:50:00      0.087     0.000     0.008  2500.008
  MAY-03-2014 00:51:00      0.090     0.000     0.009  2500.009
  MAY-03-2014 00:52:00      0.093     0.000     0.009  2500.009
  MAY-03-2014 00:53:00      0.096     0.000     0.010  2500.010
  MAY-03-2014 00:54:00      0.099     0.000     0.010  2500.010
  MAY-03-2014 00:55:00      0.103     0.000     0.011  2500.011
  MAY-03-2014 00:56:00      0.106     0.000     0.011  2500.011
  MAY-03-2014 00:57:00      0.109     0.000     0.012  2500.012
  MAY-03-2014 00:58:00      0.112     0.000     0.012  2500.012
  MAY-03-2014 00:59:00      0.116     0.000     0.013  2500.013
  MAY-03-2014 01:00:00      0.119     0.000     0.013  2500.013
  MAY-03-2014 01:01:00      0.122     0.000     0.014  2500.014
  MAY-03-2014 01:02:00      0.126     0.000     0.014  2500.014
  MAY-03-2014 01:03:00      0.129     0.000     0.015  2500.015
  MAY-03-2014 01:04:00      0.132     0.000     0.015  2500.015
  MAY-03-2014 01:05:00      0.135     0.000     0.016  2500.016
  MAY-03-2014 01:06:00      0.139     0.000     0.016  2500.016
  MAY-03-2014 01:07:00      0.142     0.000     0.017  2500.017
  MAY-03-2014 01:08:00      0.145     0.000     0.017  2500.017
  MAY-03-2014 01:09:00      0.148     0.000     0.018  2500.018
  MAY-03-2014 01:10:00      0.151     0.000     0.018  2500.018
  MAY-03-2014 01:11:00      0.154     0.000     0.019  2500.019
  MAY-03-2014 01:12:00      0.157     0.000     0.019  2500.019
  MAY-03-2014 01:13:00      0.160     0.000     0.020  2500.020
  MAY-03-2014 01:14:00      0.163     0.000     0.020  2500.020
  MAY-03-2014 01:15:00      0.166     0.000     0.020  2500.021
  MAY-03-2014 01:16:00      0.169     0.000     0.021  2500.021
  MAY-03-2014 01:17:00      0.172     0.000     0.021  2500.021
  MAY-03-2014 01:18:00      0.175     0.000     0.022  2500.022
  MAY-03-2014 01:19:00      0.178     0.000     0.022  2500.022
  MAY-03-2014 01:20:00      0.181     0.000     0.023  2500.023
  MAY-03-2014 01:21:00      0.184     0.000     0.023  2500.023
  MAY-03-2014 01:22:00      0.186     0.000     0.024  2500.024
  MAY-03-2014 01:23:00      0.189     0.000     0.024  2500.024
  MAY-03-2014 01:24:00      0.192     0.000     0.024  2500.024
  MAY-03-2014 01:25:00      0.194     0.000     0.025  2500.025
  MAY-03-2014 01:26:00      0.197     0.000     0.025  2500.025
  MAY-03-2014 01:27:00      0.199     0.000     0.026  2500.026
  MAY-03-2014 01:28:00      0.202     0.000     0.026  2500.026
  MAY-03-2014 01:29:00      0.204     0.000     0.026  2500.026
  MAY-03-2014 01:30:00      0.207     0.000     0.027  2500.027
  MAY-03-2014 01:31:00      0.209     0.000     0.027  2500.027
  MAY-03-2014 01:32:00      0.211     0.000     0.027  2500.028
  MAY-03-2014 01:33:00      0.214     0.000     0.028  2500.028
  MAY-03-2014 01:34:00      0.216     0.000     0.028  2500.028
  MAY-03-2014 01:35:00      0.218     0.000     0.029  2500.029
  MAY-03-2014 01:36:00      0.220     0.000     0.029  2500.029
  MAY-03-2014 01:37:00      0.222     0.000     0.029  2500.029
  MAY-03-2014 01:38:00      0.224     0.000     0.030  2500.030
  MAY-03-2014 01:39:00      0.226     0.000     0.030  2500.030
  MAY-03-2014 01:40:00      0.228     0.000     0.030  2500.030
  MAY-03-2014 01:41:00      0.230     0.000     0.030  2500.031
  MAY-03-2014 01:42:00      0.232     0.000     0.031  2500.031
  MAY-03-2014 01:43:00      0.234     0.000     0.031  2500.031
  MAY-03-2014 01:44:00      0.236     0.000     0.031  2500.031
  MAY-03-2014 01:45:00      0.237     0.000     0.032  2500.031
  MAY-03-2014 01:46:00      0.239     0.000     0.032  2500.032
  MAY-03-2014 01:47:00      0.241     0.000     0.032  2500.032
  MAY-03-2014 01:48:00      0.242     0.000     0.032  2500.032
  MAY-03-2014 01:49:00      0.244     0.000     0.033  2500.033
  MAY-03-2014 01:50:00      0.246     0.000     0.033  2500.033
  MAY-03-2014 01:51:00      0.247     0.000     0.033  2500.033
  MAY-03-2014 01:52:00      0.249     0.000     0.033  2500.033
  MAY-03-2014 01:53:00      0.250     0.000     0.034  2500.033
  MAY-03-2014 01:54:00      0.251     0.000     0.034  2500.034
  MAY-03-2014 01:55:00      0.253     0.000     0.034  2500.034
  MAY-03-2014 01:56:00      0.254     0.000     0.034  2500.034
  MAY-03-2014 01:57:00      0.255     0.000     0.034  2500.034
  MAY-03-2014 01:58:00      0.257     0.000     0.035  2500.035
  MAY-03-2014 01:59:00      0.258     0.000     0.035  2500.035
  MAY-03-2014 02:00:00      0.259     0.000     0.035  2500.035
  MAY-03-2014 02:01:00      0.260     0.000     0.035  2500.035
  MAY-03-2014 02:02:00      0.261     0.000     0.035  2500.035
  MAY-03-2014 02:03:00      0.263     0.000     0.036  2500.035
  MAY-03-2014 02:04:00      0.264     0.000     0.036  2500.036
  MAY-03-2014 02:05:00      0.265     0.000     0.036  2500.036
  MAY-03-2014 02:06:00      0.266     0.000     0.036  2500.036
  MAY-03-2014 02:07:00      0.267     0.000     0.036  2500.036
  MAY-03-2014 02:08:00      0.268     0.000     0.036  2500.036
  MAY-03-2014 02:09:00      0.269     0.000     0.036  2500.036
  MAY-03-2014 02:10:00      0.270     0.000     0.037  2500.037
  MAY-03-2014 02:11:00      0.270     0.000     0.037  2500.037
  MAY-03-2014 02:12:00      0.271     0.000     0.037  2500.037
  MAY-03-2014 02:13:00      0.272     0.000     0.037  2500.037
  MAY-03-2014 02:14:00      0.273     0.000     0.037  2500.037
  MAY-03-2014 02:15:00      0.274     0.000     0.037  2500.037
  MAY-03-2014 02:16:00      0.275     0.000     0.037  2500.037
  MAY-03-2014 02:17:00      0.275     0.000     0.037  2500.037
  MAY-03-2014 02:18:00      0.276     0.000     0.038  2500.038
  MAY-03-2014 02:19:00      0.277     0.000     0.038  2500.038
  MAY-03-2014 02:20:00      0.277     0.000     0.038  2500.038
  MAY-03-2014 02:21:00      0.278     0.000     0.038  2500.038
  MAY-03-2014 02:22:00      0.279     0.000     0.038  2500.038
  MAY-03-2014 02:23:00      0.279     0.000     0.038  2500.038
  MAY-03-2014 02:24:00      0.280     0.000     0.038  2500.038
  MAY-03-2014 02:25:00      0.281     0.000     0.038  2500.038
  MAY-03-2014 02:26:00      0.281     0.000     0.038  2500.038
  MAY-03-2014 02:27:00      0.282     0.000     0.038  2500.038
  MAY-03-2014 02:28:00      0.282     0.000     0.038  2500.039
  MAY-03-2014 02:29:00      0.283     0.000     0.039  2500.039
  MAY-03-2014 02:30:00      0.283     0.000     0.039  2500.039
  MAY-03-2014 02:31:00      0.284     0.000     0.039  2500.039
  MAY-03-2014 02:32:00      0.284     0.000     0.039  2500.039
  MAY-03-2014 02:33:00      0.285     0.000     0.039  2500.039
  MAY-03-2014 02:34:00      0.285     0.000     0.039  2500.039
  MAY-03-2014 02:35:00      0.286     0.000     0.039  2500.039
  MAY-03-2014 02:36:00      0.286     0.000     0.039  2500.039
  MAY-03-2014 02:37:00      0.287     0.000     0.039  2500.039
  MAY-03-2014 02:38:00      0.287     0.000     0.039  2500.039
  MAY-03-2014 02:39:00      0.287     0.000     0.039  2500.039
  MAY-03-2014 02:40:00      0.288     0.000     0.039  2500.039
  MAY-03-2014 02:41:00      0.288     0.000     0.039  2500.039
  MAY-03-2014 02:42:00      0.288     0.000     0.039  2500.039
  MAY-03-2014 02:43:00      0.289     0.000     0.039  2500.039
  MAY-03-2014 02:44:00      0.289     0.000     0.039  2500.040
  MAY-03-2014 02:45:00      0.289     0.000     0.040  2500.040
  MAY-03-2014 02:46:00      0.290     0.000     0.040  2500.040
  MAY-03-2014 02:47:00      0.290     0.000     0.040  2500.040
  MAY-03-2014 02:48:00      0.290     0.000     0.040  2500.040
  MAY-03-2014 02:49:00      0.291     0.000     0.040  2500.040
  MAY-03-2014 02:50:00      0.291     0.000     0.040  2500.040
  MAY-03-2014 02:51:00      0.291     0.000     0.040  2500.040
  MAY-03-2014 02:52:00      0.291     0.000     0.040  2500.040
  MAY-03-2014 02:53:00      0.292     0.000     0.040  2500.040
  MAY-03-2014 02:54:00      0.292     0.000     0.040  2500.040
  MAY-03-2014 02:55:00      0.292     0.000     0.040  2500.040
  MAY-03-2014 02:56:00      0.292     0.000     0.040  2500.040
  MAY-03-2014 02:57:00      0.293     0.000     0.040  2500.040
  MAY-03-2014 02:58:00      0.293     0.000     0.040  2500.040
  MAY-03-2014 02:59:00      0.293     0.000     0.040  2500.040
  MAY-03-2014 03:00:00      0.293     0.000     0.040  2500.040
  MAY-03-2014 03:01:00      0.294     0.000     0.040  2500.040
  MAY-03-2014 03:02:00      0.294     0.000     0.040  2500.040
  MAY-03-2014 03:03:00      0.294     0.000     0.040  2500.040
  MAY-03-2014 03:04:00      0.294     0.000     0.040  2500.040
  MAY-03-2014 03:05:00      0.294     0.000     0.040  2500.040
  MAY-03-2014 03:06:00      0.294     0.000     0.040  2500.040
  MAY-03-2014 03:07:00      0.295     0.000     0.040  2500.040
  MAY-03-2014 03:08:00      0.295     0.000     0.040  2500.040
  MAY-03-2014 03:09:00      0.295     0.000     0.040  2500.040
  MAY-03-2014 03:10:00      0.295     0.000     0.040  2500.040
  MAY-03-2014 03:11:00      0.295     0.000     0.040  2500.040
  MAY-03-2014 03:12:00      0.295     0.000     0.040  2500.040
  MAY-03-2014 03:13:00      0.296     0.000     0.040  2500.040
  MAY-03-2014 03:14:00      0.296     0.000     0.040  2500.041
  MAY-03-2014 03:15:00      0.296     0.000     0.040  2500.041
  MAY-03-2014 03:16:00      0.296     0.000     0.040  2500.041
  MAY-03-2014 03:17:00      0.296     0.000     0.040  2500.041
  MAY-03-2014 03:18:00      0.296     0.000     0.040  2500.041
  MAY-03-2014 03:19:00      0.296     0.000     0.041  2500.041
  MAY-03-2014 03:20:00      0.296     0.000     0.041  2500.041
  MAY-03-2014 03:21:00      0.297     0.000     0.041  2500.041
  MAY-03-2014 03:22:00      0.297     0.000     0.041  2500.041
  MAY-03-2014 03:23:00      0.297     0.000     0.041  2500.041
  MAY-03-2014 03:24:00      0.297     0.000     0.041  2500.041
  MAY-03-2014 03:25:00      0.297     0.000     0.041  2500.041
  MAY-03-2014 03:26:00      0.297     0.000     0.041  2500.041
  MAY-03-2014 03:27:00      0.297     0.000     0.041  2500.041
  MAY-03-2014 03:28:00      0.297     0.000     0.041  2500.041
  MAY-03-2014 03:29:00      0.297     0.000     0.041  2500.041
  MAY-03-2014 03:30:00      0.297     0.000     0.041  2500.041
  MAY-03-2014 03:31:00      0.297     0.000     0.041  2500.041
  MAY-03-2014 03:32:00      0.298     0.000     0.041  2500.041
  MAY-03-2014 03:33:00      0.298     0.000     0.041  2500.041
  MAY-03-2014 03:34:00      0.298     0.000     0.041  2500.041
  MAY-03-2014 03:35:00      0.298     0.000     0.041  2500.041
  MAY-03-2014 03:36:00      0.298     0.000     0.041  2500.041
  MAY-03-2014 03:37:00      0.298     0.000     0.041  2500.041
  MAY-03-2014 03:38:00      0.298     0.000     0.041  2500.041
  MAY-03-2014 03:39:00      0.298     0.000     0.041  2500.041
  MAY-03-2014 03:40:00      0.298     0.000     0.041  2500.041
  MAY-03-2014 03:41:00      0.298     0.000     0.041  2500.041
  MAY-03-2014 03:42:00      0.298     0.000     0.041  2500.041
  MAY-03-2014 03:43:00      0.298     0.000     0.041  2500.041
  MAY-03-2014 03:44:00      0.298     0.000     0.041  2500.041
  MAY-03-2014 03:45:00      0.298     0.000     0.041  2500.041
  MAY-03-2014 03:46:00      0.298     0.000     0.041  2500.041
  MAY-03-2014 03:47:00      0.298     0.000     0.041  2500.041
  MAY-03-2014 03:48:00      0.298     0.000     0.041  2500.041
  MAY-03-2014 03:49:00      0.299     0.000     0.041  2500.041
  MAY-03-2014 03:50:00      0.299     0.000     0.041  2500.041
  MAY-03-2014 03:51:00      0.299     0.000     0.041  2500.041
  MAY-03-2014 03:52:00      0.299     0.000     0.041  2500.041
  MAY-03-2014 03:53:00      0.299     0.000     0.041  2500.041
  MAY-03-2014 03:54:00      0.299     0.000     0.041  2500.041
  MAY-03-2014 03:55:00      0.299     0.000     0.041  2500.041
  MAY-03-2014 03:56:00      0.299     0.000     0.041  2500.041
  MAY-03-2014 03:57:00      0.299     0.000     0.041  2500.041
  MAY-03-2014 03:58:00      0.299     0.000     0.041  2500.041
  MAY-03-2014 03:59:00      0.299     0.000     0.041  2500.041
  MAY-03-2014 04:00:00      0.299     0.000     0.041  2500.041
  MAY-03-2014 04:01:00      0.299     0.000     0.041  2500.041
  MAY-03-2014 04:02:00      0.299     0.000     0.041  2500.041
  MAY-03-2014 04:03:00      0.299     0.000     0.041  2500.041
  MAY-03-2014 04:04:00      0.299     0.000     0.041  2500.041
  MAY-03-2014 04:05:00      0.299     0.000     0.041  2500.041
  MAY-03-2014 04:06:00      0.299     0.000     0.041  2500.041
  MAY-03-2014 04:07:00      0.299     0.000     0.041  2500.041
  MAY-03-2014 04:08:00      0.299     0.000     0.041  2500.041
  MAY-03-2014 04:09:00      0.299     0.000     0.041  2500.041
  MAY-03-2014 04:10:00      0.299     0.000     0.041  2500.041
  MAY-03-2014 04:11:00      0.299     0.000     0.041  2500.041
  MAY-03-2014 04:12:00      0.299     0.000     0.041  2500.041
  MAY-03-2014 04:13:00      0.299     0.000     0.041  2500.041
  MAY-03-2014 04:14:00      0.299     0.000     0.041  2500.041
  MAY-03-2014 04:15:00      0.299     0.000     0.041  2500.041
  MAY-03-2014 04:16:00      0.299     0.000     0.041  2500.041
  MAY-03-2014 04:17:00      0.299     0.000     0.041  2500.041
  MAY-03-2014 04:18:00      0.299     0.000     0.041  2500.041
  MAY-03-2014 04:19:00      0.299     0.000     0.041  2500.041
  MAY-03-2014 04:20:00      0.299     0.000     0.041  2500.041
  MAY-03-2014 04:21:00      0.299     0.000     0.041  2500.041
  MAY-03-2014 04:22:00      0.299     0.000     0.041  2500.041
  MAY-03-2014 04:23:00      0.299     0.000     0.041  2500.041
  MAY-03-2014 04:24:00      0.300     0.000     0.041  2500.041
  MAY-03-2014 04:25:00      0.300     0.000     0.041  2500.041
  MAY-03-2014 04:26:00      0.300     0.000     0.041  2500.041
  MAY-03-2014 04:27:00      0.300     0.000     0.041  2500.041
  MAY-03-2014 04:28:00      0.300     0.000     0.041  2500.041
  MAY-03-2014 04:29:00      0.300     0.000     0.041  2500.041
  MAY-03-2014 04:30:00      0.300     0.000     0.041  2500.041
  MAY-03-2014 04:31:00      0.300     0.000     0.041  2500.041
  MAY-03-2014 04:32:00      0.300     0.000     0.041  2500.041
  MAY-03-2014 04:33:00      0.300     0.000     0.041  2500.041
  MAY-03-2014 04:34:00      0.300     0.000     0.041  2500.041
  MAY-03-2014 04:35:00      0.300     0.000     0.041  2500.041
  MAY-03-2014 04:36:00      0.300     0.000     0.041  2500.041
  MAY-03-2014 04:37:00      0.300     0.000     0.041  2500.041
  MAY-03-2014 04:38:00      0.300     0.000     0.041  2500.041
  MAY-03-2014 04:39:00      0.300     0.000     0.041  2500.041
  MAY-03-2014 04:40:00      0.300     0.000     0.041  2500.041
  MAY-03-2014 04:41:00      0.300     0.000     0.041  2500.041
  MAY-03-2014 04:42:00      0.300     0.000     0.041  2500.041
  MAY-03-2014 04:43:00      0.300     0.000     0.041  2500.041
  MAY-03-2014 04:44:00      0.300     0.000     0.041  2500.041
  MAY-03-2014 04:45:00      0.300     0.000     0.041  2500.041
  MAY-03-2014 04:46:00      0.300     0.000     0.041  2500.041
  MAY-03-2014 04:47:00      0.300     0.000     0.041  2500.041
  MAY-03-2014 04:48:00      0.300     0.000     0.041  2500.041
  MAY-03-2014 04:49:00      0.300     0.000     0.041  2500.041
  MAY-03-2014 04:50:00      0.300     0.000     0.041  2500.041
  MAY-03-2014 04:51:00      0.300     0.000     0.041  2500.041
  MAY-03-2014 04:52:00      0.300     0.000     0.041  2500.041
  MAY-03-2014 04:53:00      0.300     0.000     0.041  2500.041
  MAY-03-2014 04:54:00      0.300     0.000     0.041  2500.041
  MAY-03-2014 04:55:00      0.300     0.000     0.041  2500.041
  MAY-03-2014 04:56:00      0.300     0.000     0.041  2500.041
  MAY-03-2014 04:57:00      0.300     0.000     0.041  2500.041
  MAY-03-2014 04:58:00      0.300     0.000     0.041  2500.041
  MAY-03-2014 04:59:00      0.300     0.000     0.041  2500.041
  MAY-03-2014 05:00:00      0.300     0.000     0.041  2500.041
  MAY-03-2014 05:01:00      0.300     0.000     0.041  2500.041
  MAY-03-2014 05:02:00      0.300     0.000     0.041  2500.041
  MAY-03-2014 05:03:00      0.300     0.000     0.041  2500.041
  MAY-03-2014 05:04:00      0.300     0.000     0.041  2500.041
  MAY-03-2014 05:05:00      0.300     0.000     0.041  2500.041
  MAY-03-2014 05:06:00      0.300     0.000     0.041  2500.041
  MAY-03-2014 05:07:00      0.300     0.000     0.041  2500.041
  MAY-03-2014 05:08:00      0.300     0.000     0.041  2500.041
  MAY-03-2014 05:09:00      0.300     0.000     0.041  2500.041
  MAY-03-2014 05:10:00      0.300     0.000     0.041  2500.041
  MAY-03-2014 05:11:00      0.300     0.000     0.041  2500.041
  MAY-03-2014 05:12:00      0.300     0.000     0.041  2500.041
  MAY-03-2014 05:13:00      0.300     0.000     0.041  2500.041
  MAY-03-2014 05:14:00      0.300     0.000     0.041  2500.041
  MAY-03-2014 05:15:00      0.300     0.000     0.041  2500.041
  MAY-03-2014 05:16:00      0.300     0.000     0.041  2500.041
  MAY-03-2014 05:17:00      0.300     0.000     0.041  2500.041
  MAY-03-2014 05:18:00      0.300     0.000     0.041  2500.041
  MAY-03-2014 05:19:00      0.300     0.000     0.041  2500.041
  MAY-03-2014 05:20:00      0.300     0.000     0.041  2500.041
  MAY-03-2014 05:21:00      0.300     0.000     0.041  2500.041
  MAY-03-2014 05:22:00      0.300     0.000     0.041  2500.041
  MAY-03-2014 05:23:00      0.300     0.000     0.041  2500.041
  MAY-03-2014 05:24:00      0.300     0.000     0.041  2500.041
  MAY-03-2014 05:25:00      0.300     0.000     0.041  2500.041
  MAY-03-2014 05:26:00      0.300     0.000     0.041  2500.041
  MAY-03-2014 05:27:00      0.300     0.000     0.041  2500.041
  MAY-03-2014 05:28:00      0.300     0.000     0.041  2500.041
  MAY-03-2014 05:29:00      0.300     0.000     0.041  2500.041
  MAY-03-2014 05:30:00      0.300     0.000     0.041  2500.041
  MAY-03-2014 05:31:00      0.300     0.000     0.041  2500.041
  MAY-03-2014 05:32:00      0.300     0.000     0.041  2500.041
  MAY-03-2014 05:33:00      0.300     0.000     0.041  2500.041
  MAY-03-2014 05:34:00      0.300     0.000     0.041  2500.041
  MAY-03-2014 05:35:00      0.300     0.000     0.041  2500.041
  MAY-03-2014 05:36:00      0.300     0.000     0.041  2500.041
  MAY-03-2014 05:37:00      0.300     0.000     0.041  2500.041
  MAY-03-2014 05:38:00      0.300     0.000     0.041  2500.041
  MAY-03-2014 05:39:00      0.300     0.000     0.041  2500.041
  MAY-03-2014 05:40:00      0.300     0.000     0.041  2500.041
  MAY-03-2014 05:41:00      0.300     0.000     0.041  2500.041
  MAY-03-2014 05:42:00      0.300     0.000     0.041  2500.041
  MAY-03-2014 05:43:00      0.300     0.000     0.041  2500.041
  MAY-03-2014 05:44:00      0.300     0.000     0.041  2500.041
  MAY-03-2014 05:45:00      0.300     0.000     0.041  2500.041
  MAY-03-2014 05:46:00      0.300     0.000     0.041  2500.041
  MAY-03-2014 05:47:00      0.300     0.000     0.041  2500.041
  MAY-03-2014 05:48:00      0.300     0.000     0.041  2500.041
  MAY-03-2014 05:49:00      0.300     0.000     0.041  2500.041
  MAY-03-2014 05:50:00      0.300     0.000     0.041  2500.041
  MAY-03-2014 05:51:00      0.300     0.000     0.041  2500.041
  MAY-03-2014 05:52:00      0.300     0.000     0.041  2500.041
  MAY-03-2014 05:53:00      0.300     0.000     0.041  2500.041
  MAY-03-2014 05:54:00      0.300     0.000     0.041  2500.041
  MAY-03-2014 05:55:00      0.300     0.000     0.041  2500.041
  MAY-03-2014 05:56:00      0.300     0.000     0.041  2500.041
  MAY-03-2014 05:57:00      0.300     0.000     0.041  2500.041
  MAY-03-2014 05:58:00      0.300     0.000     0.041  2500.041
  MAY-03-2014 05:59:00      0.300     0.000     0.041  2500.041
  MAY-03-2014 06:00:00      0.300     0.000     0.041  2500.041
  MAY-03-2014 06:01:00      0.300     0.000     0.041  2500.041
  MAY-03-2014 06:02:00      0.300     0.000     0.041  2500.041
  MAY-03-2014 06:03:00      0.300     0.000     0.041  2500.041
  MAY-03-2014 06:04:00      0.300     0.000     0.041  2500.041
  MAY-03-2014 06:05:00      0.300     0.000     0.041  2500.041
  MAY-03-2014 06:06:00      0.300     0.000     0.041  2500.041
  MAY-03-2014 06:07:00      0.300     0.000     0.041  2500.041
  MAY-03-2014 06:08:00      0.300     0.000     0.041  2500.041
  MAY-03-2014 06:09:00      0.300     0.000     0.041  2500.041
  MAY-03-2014 06:10:00      0.300     0.000     0.041  2500.041
  MAY-03-2014 06:11:00      0.300     0.000     0.041  2500.041
  MAY-03-2014 06:12:00      0.300     0.000     0.041  2500.041
  MAY-03-2014 06:13:00      0.300     0.000     0.041  2500.041
  MAY-03-2014 06:14:00      0.300     0.000     0.041  2500.041
  MAY-03-2014 06:15:00      0.300     0.000     0.041  2500.041
  MAY-03-2014 06:16:00      0.300     0.000     0.041  2500.041
  MAY-03-2014 06:17:00      0.300     0.000     0.041  2500.041
  MAY-03-2014 06:18:00      0.300     0.000     0.041  2500.041
  MAY-03-2014 06:19:00      0.300     0.000     0.041  2500.041
  MAY-03-2014 06:20:00      0.300     0.000     0.041  2500.041
  MAY-03-2014 06:21:00      0.300     0.000     0.041  2500.041
  MAY-03-2014 06:22:00      0.300     0.000     0.041  2500.041
  MAY-03-2014 06:23:00      0.300     0.000     0.041  2500.041
  MAY-03-2014 06:24:00      0.300     0.000     0.041  2500.041
[...]
  MAY-03-2014 06:51:00      0.300     0.199     0.116     0.017
  MAY-03-2014 06:52:00      0.300     0.199     0.116     0.017
  MAY-03-2014 06:53:00      0.300     0.199     0.116     0.017
  MAY-03-2014 06:54:00      0.300     0.199     0.116     0.017
  MAY-03-2014 06:55:00      0.300     0.199     0.116     0.017
  MAY-03-2014 06:56:00      0.300     0.199     0.116     0.017
  MAY-03-2014 06:57:00      0.300     0.199     0.116     0.017
  MAY-03-2014 06:58:00      0.300     0.199     0.116     0.017
  MAY-03-2014 06:59:00      0.300     0.199     0.116     0.017
  MAY-03-2014 07:00:00      0.300     0.199     0.116     0.017
  MAY-03-2014 07:01:00      0.300     0.199     0.116     0.017
  MAY-03-2014 07:02:00      0.300     0.199     0.116     0.017
  MAY-03-2014 07:03:00      0.300     0.199     0.116     0.017
  MAY-03-2014 07:04:00      0.300     0.199     0.116     0.017
  MAY-03-2014 07:05:00      0.300     0.199     0.116     0.017
  MAY-03-2014 07:06:00      0.300     0.199     0.116     0.017
  MAY-03-2014 07:07:00      0.300     0.199     0.116     0.017
  MAY-03-2014 07:08:00      0.300     0.199     0.116     0.017
  MAY-03-2014 07:09:00      0.300     0.199     0.116     0.017
  MAY-03-2014 07:10:00      0.300     0.199     0.116     0.017
  MAY-03-2014 07:11:00      0.300     0.199     0.116     0.017
  MAY-03-2014 07:12:00      0.300     0.199     0.116     0.017
  MAY-03-2014 07:13:00      0.300     0.199     0.116     0.017
  MAY-03-2014 07:14:00      0.300     0.199     0.116     0.017
  MAY-03-2014 07:15:00      0.300     0.199     0.116     0.017
  MAY-03-2014 07:16:00      0.300     0.199     0.116     0.017
  MAY-03-2014 07:17:00      0.300     0.199     0.116     0.017
  MAY-03-2014 07:18:00      0.300     0.199     0.116     0.017
  MAY-03-2014 07:19:00      0.300     0.199     0.116     0.017
  MAY-03-2014 07:20:00      0.300     0.199     0.116     0.017
  MAY-03-2014 07:21:00      0.300     0.199     0.116     0.017
  MAY-03-2014 07:22:00      0.300     0.199     0.116     0.017
  MAY-03-2014 07:23:00      0.300     0.199     0.116     0.017
  MAY-03-2014 07:24:00      0.300     0.199     0.116     0.017
  MAY-03-2014 07:25:00      0.300     0.199     0.116     0.017
  MAY-03-2014 07:26:00      0.300     0.199     0.116     0.017
  MAY-03-2014 07:27:00      0.300     0.199     0.116     0.017
  MAY-03-2014 07:28:00      0.300     0.199     0.116     0.017
  MAY-03-2014 07:29:00      0.300     0.199     0.116     0.017
  MAY-03-2014 07:30:00      0.300     0.199     0.116     0.017
  MAY-03-2014 07:31:00      0.300     0.199     0.116     0.017
  MAY-03-2014 07:32:00      0.300     0.199     0.116     0.017
  MAY-03-2014 07:33:00      0.300     0.199     0.116     0.017
  MAY-03-2014 07:34:00      0.300     0.199     0.116     0.017
  MAY-03-2014 07:35:00      0.300     0.199     0.116     0.017
  MAY-03-2014 07:36:00      0.300     0.199     0.116     0.017
  MAY-03-2014 07:37:00      0.300     0.199     0.116     0.017
  MAY-03-2014 07:38:00      0.300     0.199     0.116     0.017
  MAY-03-2014 07:39:00      0.300     0.199     0.116     0.017
  MAY-03-2014 07:40:00      0.300     0.199     0.116     0.017
  MAY-03-2014 07:41:00      0.300     0.199     0.116     0.017
  MAY-03-2014 07:42:00      0.300     0.199     0.116     0.017
  MAY-03-2014 07:43:00      0.300     0.199     0.116     0.017
  MAY-03-2014 07:44:00      0.300     0.199     0.116     0.017
  MAY-03-2014 07:45:00      0.300     0.199     0.116     0.017
  MAY-03-2014 07:46:00      0.300     0.199     0.116     0.017
  MAY-03-2014 07:47:00      0.300     0.199     0.116     0.017
  MAY-03-2014 07:48:00      0.300     0.199     0.116     0.017
  MAY-03-2014 07:49:00      0.300     0.199     0.116     0.017
  MAY-03-2014 07:50:00      0.300     0.199     0.116     0.017
  MAY-03-2014 07:51:00      0.300     0.199     0.116     0.017
  MAY-03-2014 07:52:00      0.300     0.199     0.116     0.017
  MAY-03-2014 07:53:00      0.300     0.199     0.116     0.017
  MAY-03-2014 07:54:00      0.300     0.199     0.116     0.017
  MAY-03-2014 07:55:00      0.300     0.199     0.116     0.017
  MAY-03-2014 07:56:00      0.300     0.199     0.116     0.017
  MAY-03-2014 07:57:00      0.300     0.199     0.116     0.017
  MAY-03-2014 07:58:00      0.300     0.199     0.116     0.017
  MAY-03-2014 07:59:00      0.300     0.199     0.116     0.017
  MAY-03-2014 08:00:00      0.300     0.199     0.116     0.017
  MAY-03-2014 08:01:00      0.300     0.199     0.116     0.017
  MAY-03-2014 08:02:00      0.300     0.199     0.116     0.017
  MAY-03-2014 08:03:00      0.300     0.199     0.116     0.017
  MAY-03-2014 08:04:00      0.300     0.199     0.116     0.017
  MAY-03-2014 08:05:00      0.300     0.199     0.116     0.017
  MAY-03-2014 08:06:00      0.300     0.199     0.116     0.017
  MAY-03-2014 08:07:00      0.300     0.199     0.116     0.017
  MAY-03-2014 08:08:00      0.300     0.199     0.116     0.017
  MAY-03-2014 08:09:00      0.300     0.199     0.116     0.017
  MAY-03-2014 08:10:00      0.300     0.199     0.116     0.017
  MAY-03-2014 08:11:00      0.300     0.199     0.116     0.017
  MAY-03-2014 08:12:00      0.300     0.199     0.116     0.017
  MAY-03-2014 08:13:00      0.300     0.199     0.116     0.017
  MAY-03-2014 08:14:00      0.300     0.199     0.116     0.017
  MAY-03-2014 08:15:00      0.300     0.199     0.116     0.017
  MAY-03-2014 08:16:00      0.300     0.199     0.116     0.017
  MAY-03-2014 08:17:00      0.300     0.199     0.116     0.017
  MAY-03-2014 08:18:00      0.300     0.199     0.116     0.017
  MAY-03-2014 08:19:00      0.300     0.199     0.116     0.017
  MAY-03-2014 08:20:00      0.300     0.199     0.116     0.017
  MAY-03-2014 08:21:00      0.300     0.199     0.116     0.017
  MAY-03-2014 08:22:00      0.300     0.199     0.116     0.017
  MAY-03-2014 08:23:00      0.300     0.199     0.116     0.017
  MAY-03-2014 08:24:00      0.300     0.199     0.116     0.017
  MAY-03-2014 08:25:00      0.300     0.199     0.116     0.017
  MAY-03-2014 08:26:00      0.300     0.199     0.116     0.017
  MAY-03-2014 08:27:00      0.300     0.199     0.116     0.017
  MAY-03-2014 08:28:00      0.300     0.199     0.116     0.017
  MAY-03-2014 08:29:00      0.300     0.199     0.116     0.017
  MAY-03-2014 08:30:00      0.300     0.199     0.116     0.017
  MAY-03-2014 08:31:00      0.300     0.199     0.116     0.017
  MAY-03-2014 08:32:00      0.300     0.199     0.116     0.017
  MAY-03-2014 08:33:00      0.300     0.199     0.116     0.017
  MAY-03-2014 08:34:00      0.300     0.199     0.116     0.017
  MAY-03-2014 08:35:00      0.300     0.199     0.116     0.017
  MAY-03-2014 08:36:00      0.300     0.199     0.116     0.017
  MAY-03-2014 08:37:00      0.300     0.199     0.116     0.017
  MAY-03-2014 08:38:00      0.300     0.199     0.116     0.017
  MAY-03-2014 08:39:00      0.300     0.199     0.116     0.017
  MAY-03-2014 08:40:00      0.300     0.199     0.116     0.017
  MAY-03-2014 08:41:00      0.300     0.199     0.116     0.017
  MAY-03-2014 08:42:00      0.300     0.199     0.116     0.017
  MAY-03-2014 08:43:00      0.300     0.199     0.116     0.017
  MAY-03-2014 08:44:00      0.300     0.199     0.116     0.017
  MAY-03-2014 08:45:00      0.300     0.199     0.116     0.017
  MAY-03-2014 08:46:00      0.300     0.199     0.116     0.017
  MAY-03-2014 08:47:00      0.300     0.199     0.116     0.017
  MAY-03-2014 08:48:00      0.300     0.199     0.116     0.017
  MAY-03-2014 08:49:00      0.300     0.199     0.116     0.017
  MAY-03-2014 08:50:00      0.300     0.199     0.116     0.017
  MAY-03-2014 08:51:00      0.300     0.199     0.116     0.017
  MAY-03-2014 08:52:00      0.300     0.199     0.116     0.017
  MAY-03-2014 08:53:00      0.300     0.199     0.116     0.017
  MAY-03-2014 08:54:00      0.300     0.199     0.116     0.017
  MAY-03-2014 08:55:00      0.300     0.199     0.116     0.017
  MAY-03-2014 08:56:00      0.300     0.199     0.116     0.017
  MAY-03-2014 08:57:00      0.300     0.199     0.116     0.017
  MAY-03-2014 08:58:00      0.300     0.199     0.116     0.017
  MAY-03-2014 08:59:00      0.300     0.199     0.116     0.017
  MAY-03-2014 09:00:00      0.300     0.199     0.116     0.017
  MAY-03-2014 09:01:00      0.300     0.199     0.116     0.017
  MAY-03-2014 09:02:00      0.300     0.199     0.116     0.017
  MAY-03-2014 09:03:00      0.300     0.199     0.116     0.017
  MAY-03-2014 09:04:00      0.300     0.199     0.116     0.017
  MAY-03-2014 09:05:00      0.300     0.199     0.116     0.017
  MAY-03-2014 09:06:00      0.300     0.199     0.116     0.017
  MAY-03-2014 09:07:00      0.300     0.199     0.116     0.017
  MAY-03-2014 09:08:00      0.300     0.199     0.116     0.017
  MAY-03-2014 09:09:00      0.300     0.199     0.116     0.017
  MAY-03-2014 09:10:00      0.300     0.199     0.116     0.017
  MAY-03-2014 09:11:00      0.300     0.199     0.116     0.017
  MAY-03-2014 09:12:00      0.300     0.199     0.116     0.017
  MAY-03-2014 09:13:00      0.300     0.199     0.116     0.017
  MAY-03-2014 09:14:00      0.300     0.199     0.116     0.017
  MAY-03-2014 09:15:00      0.300     0.199     0.116     0.017
  MAY-03-2014 09:16:00      0.300     0.199     0.116     0.017
  MAY-03-2014 09:17:00      0.300     0.199     0.116     0.017
  MAY-03-2014 09:18:00      0.300     0.199     0.116     0.017
  MAY-03-2014 09:19:00      0.300     0.199     0.116     0.017
  MAY-03-2014 09:20:00      0.300     0.199     0.116     0.017
  MAY-03-2014 09:21:00      0.300     0.199     0.116     0.017
  MAY-03-2014 09:22:00      0.300     0.199     0.116     0.017
  MAY-03-2014 09:23:00      0.300     0.199     0.116     0.017
  MAY-03-2014 09:24:00      0.300     0.199     0.116     0.017
  MAY-03-2014 09:25:00      0.300     0.199     0.116     0.017
  MAY-03-2014 09:26:00      0.300     0.199     0.116     0.017
  MAY-03-2014 09:27:00      0.300     0.199     0.116     0.017
  MAY-03-2014 09:28:00      0.300     0.199     0.116     0.017
  MAY-03-2014 09:29:00      0.300     0.199     0.116     0.017
  MAY-03-2014 09:30:00      0.300     0.199     0.116     0.017
  MAY-03-2014 09:31:00      0.300     0.199     0.116     0.017
  MAY-03-2014 09:32:00      0.300     0.199     0.116     0.017
  MAY-03-2014 09:33:00      0.300     0.199     0.116     0.017
  MAY-03-2014 09:34:00      0.300     0.199     0.116     0.017
  MAY-03-2014 09:35:00      0.300     0.199     0.116     0.017
  MAY-03-2014 09:36:00      0.300     0.199     0.116     0.017
  MAY-03-2014 09:37:00      0.300     0.199     0.116     0.017
  MAY-03-2014 09:38:00      0.300     0.199     0.116     0.017
  MAY-03-2014 09:39:00      0.300     0.199     0.116     0.017
  MAY-03-2014 09:40:00      0.300     0.199     0.116     0.017
  MAY-03-2014 09:41:00      0.300     0.199     0.116     0.017
  MAY-03-2014 09:42:00      0.300     0.199     0.116     0.017
  MAY-03-2014 09:43:00      0.300     0.199     0.116     0.017
  MAY-03-2014 09:44:00      0.300     0.199     0.116     0.017
  MAY-03-2014 09:45:00      0.300     0.199     0.116     0.017
  MAY-03-2014 09:46:00      0.300     0.199     0.116     0.017
  MAY-03-2014 09:47:00      0.300     0.199     0.116     0.017
  MAY-03-2014 09:48:00      0.300     0.199     0.116     0.017
  MAY-03-2014 09:49:00      0.300     0.199     0.116     0.017
  MAY-03-2014 09:50:00      0.300     0.199     0.116     0.017
  MAY-03-2014 09:51:00      0.300     0.199     0.116     0.017
  MAY-03-2014 09:52:00      0.300     0.199     0.116     0.017
  MAY-03-2014 09:53:00      0.300     0.199     0.116     0.017
  MAY-03-2014 09:54:00      0.300     0.199     0.116     0.017
  MAY-03-2014 09:55:00      0.300     0.199     0.116     0.017
  MAY-03-2014 09:56:00      0.300     0.199     0.116     0.017
  MAY-03-2014 09:57:00      0.300     0.199     0.116     0.017
  MAY-03-2014 09:58:00      0.300     0.199     0.116     0.017
  MAY-03-2014 09:59:00      0.300     0.199     0.116     0.017
  MAY-03-2014 10:00:00      0.300     0.199     0.116     0.017
  MAY-03-2014 10:01:00      0.300     0.199     0.116     0.017
  MAY-03-2014 10:02:00      0.300     0.199     0.116     0.017
  MAY-03-2014 10:03:00      0.300     0.199     0.116     0.017
  MAY-03-2014 10:04:00      0.300     0.199     0.116     0.017
  MAY-03-2014 10:05:00      0.300     0.199     0.116     0.017
  MAY-03-2014 10:06:00      0.300     0.199     0.116     0.017
  MAY-03-2014 10:07:00      0.300     0.199     0.116     0.017
  MAY-03-2014 10:08:00      0.300     0.199     0.116     0.017
  MAY-03-2014 10:09:00      0.300     0.199     0.116     0.017
  MAY-03-2014 10:10:00      0.300     0.199     0.116     0.017
  MAY-03-2014 10:11:00      0.300     0.199     0.116     0.017
  MAY-03-2014 10:12:00      0.300     0.199     0.116     0.017
  MAY-03-2014 10:13:00      0.300     0.199     0.116     0.017
  MAY-03-2014 10:14:00      0.300     0.199     0.116     0.017
  MAY-03-2014 10:15:00      0.300     0.199     0.116     0.017
  MAY-03-2014 10:16:00      0.300     0.199     0.116     0.017
  MAY-03-2014 10:17:00      0.300     0.199     0.116     0.017
  MAY-03-2014 10:18:00      0.300     0.199     0.116     0.017
  MAY-03-2014 10:19:00      0.300     0.199     0.116     0.017
  MAY-03-2014 10:20:00      0.300     0.199     0.116     0.017
  MAY-03-2014 10:21:00      0.300     0.199     0.116     0.017
  MAY-03-2014 10:22:00      0.300     0.199     0.116     0.017
  MAY-03-2014 10:23:00      0.300     0.199     0.116     0.017
  MAY-03-2014 10:24:00      0.300     0.199     0.116     0.017
  MAY-03-2014 10:25:00      0.300     0.199     0.116     0.017
  MAY-03-2014 10:26:00      0.300     0.199     0.116     0.017
  MAY-03-2014 10:27:00      0.300     0.199     0.116     0.017
  MAY-03-2014 10:28:00      0.300     0.199     0.116     0.017
  MAY-03-2014 10:29:00      0.300     0.199     0.116     0.017
  MAY-03-2014 10:30:00      0.300     0.199     0.116     0.017
  MAY-03-2014 10:31:00      0.300     0.199     0.116     0.017
  MAY-03-2014 10:32:00      0.300     0.199     0.116     0.017
  MAY-03-2014 10:33:00      0.300     0.199     0.116     0.017
  MAY-03-2014 10:34:00      0.300     0.199     0.116     0.017
  MAY-03-2014 10:35:00      0.300     0.199     0.116     0.017
  MAY-03-2014 10:36:00      0.300     0.199     0.116     0.017
  MAY-03-2014 10:37:00      0.300     0.199     0.116     0.017
  MAY-03-2014 10:38:00      0.300     0.199     0.116     0.017
  MAY-03-2014 10:39:00      0.300     0.199     0.116     0.017
  MAY-03-2014 10:40:00      0.300     0.199     0.116     0.017
  MAY-03-2014 10:41:00      0.300     0.199     0.116     0.017
  MAY-03-2014 10:42:00      0.300     0.199     0.116     0.017
  MAY-03-2014 10:43:00      0.300     0.199     0.116     0.017
  MAY-03-2014 10:44:00      0.300     0.199     0.116     0.017
  MAY-03-2014 10:45:00      0.300     0.199     0.116     0.017
  MAY-03-2014 10:46:00      0.300     0.199     0.116     0.017
  MAY-03-2014 10:47:00      0.300     0.199     0.116     0.017
  MAY-03-2014 10:48:00      0.300     0.199     0.116     0.017
  MAY-03-2014 10:49:00      0.300     0.199     0.116     0.017
  MAY-03-2014 10:50:00      0.300     0.199     0.116     0.017
  MAY-03-2014 10:51:00      0.300     0.199     0.116     0.017
  MAY-03-2014 10:52:00      0.300     0.199     0.116     0.017
  MAY-03-2014 10:53:00      0.300     0.199     0.116     0.017
  MAY-03-2014 10:54:00      0.300     0.199     0.116     0.017
  MAY-03-2014 10:55:00      0.300     0.199     0.116     0.017
  MAY-03-2014 10:56:00      0.300     0.199     0.116     0.017
  MAY-03-2014 10:57:00      0.300     0.199     0.116     0.017
  MAY-03-2014 10:58:00      0.300     0.199     0.116     0.017
  MAY-03-2014 10:59:00      0.300     0.199     0.116     0.017
  MAY-03-2014 11:00:00      0.300     0.199     0.116     0.017
  MAY-03-2014 11:01:00      0.300     0.199     0.116     0.017
  MAY-03-2014 11:02:00      0.300     0.199     0.116     0.017
  MAY-03-2014 11:03:00      0.300     0.199     0.116     0.017
  MAY-03-2014 11:04:00      0.300     0.199     0.116     0.017
  MAY-03-2014 11:05:00      0.300     0.199     0.116     0.017
  MAY-03-2014 11:06:00      0.300     0.199     0.116     0.017
  MAY-03-2014 11:07:00      0.300     0.199     0.116     0.017
  MAY-03-2014 11:08:00      0.300     0.199     0.116     0.017
  MAY-03-2014 11:09:00      0.300     0.199     0.116     0.017
  MAY-03-2014 11:10:00      0.300     0.199     0.116     0.017
  MAY-03-2014 11:11:00      0.300     0.199     0.116     0.017
  MAY-03-2014 11:12:00      0.300     0.199     0.116     0.017
  MAY-03-2014 11:13:00      0.300     0.199     0.116     0.017
  MAY-03-2014 11:14:00      0.300     0.199     0.116     0.017
  MAY-03-2014 11:15:00      0.300     0.199     0.116     0.017
  MAY-03-2014 11:16:00      0.300     0.199     0.116     0.017
  MAY-03-2014 11:17:00      0.300     0.199     0.116     0.017
  MAY-03-2014 11:18:00      0.300     0.199     0.116     0.017
  MAY-03-2014 11:19:00      0.300     0.199     0.116     0.017
  MAY-03-2014 11:20:00      0.300     0.199     0.116     0.017
  MAY-03-2014 11:21:00      0.300     0.199     0.116     0.017
  MAY-03-2014 11:22:00      0.300     0.199     0.116     0.017
  MAY-03-2014 11:23:00      0.300     0.199     0.116     0.017
  MAY-03-2014 11:24:00      0.300     0.199     0.116     0.017
  MAY-03-2014 11:25:00      0.300     0.199     0.116     0.017
  MAY-03-2014 11:26:00      0.300     0.199     0.116     0.017
  MAY-03-2014 11:27:00      0.300     0.199     0.116     0.017
  MAY-03-2014 11:28:00      0.300     0.199     0.116     0.017
  MAY-03-2014 11:29:00      0.300     0.199     0.116     0.017
  MAY-03-2014 11:30:00      0.300     0.199     0.116     0.017
  MAY-03-2014 11:31:00      0.300     0.199     0.116     0.017
  MAY-03-2014 11:32:00      0.300     0.199     0.116     0.017
  MAY-03-2014 11:33:00      0.300     0.199     0.116     0.017
  MAY-03-2014 11:34:00      0.300     0.199     0.116     0.017
  MAY-03-2014 11:35:00      0.300     0.199     0.116     0.017
  MAY-03-2014 11:36:00      0.300     0.199     0.116     0.017
  MAY-03-2014 11:37:00      0.300     0.199     0.116     0.017
  MAY-03-2014 11:38:00      0.300     0.199     0.116     0.017
  MAY-03-2014 11:39:00      0.300     0.199     0.116     0.017
  MAY-03-2014 11:40:00      0.300     0.199     0.116     0.017
  MAY-03-2014 11:41:00      0.300     0.199     0.116     0.017
  MAY-03-2014 11:42:00      0.300     0.199     0.116     0.017
  MAY-03-2014 11:43:00      0.300     0.199     0.116     0.017
  MAY-03-2014 11:44:00      0.300     0.199     0.116     0.017
  MAY-03-2014 11:45:00      0.300     0.199     0.116     0.017
  MAY-03-2014 11:46:00      0.300     0.199     0.116     0.017
  MAY-03-2014 11:47:00      0.300     0.199     0.116     0.017
  MAY-03-2014 11:48:00      0.300     0.199     0.116     0.017
  MAY-03-2014 11:49:00      0.300     0.199     0.116     0.017
  MAY-03-2014 11:50:00      0.300     0.199     0.116     0.017
  MAY-03-2014 11:51:00      0.300     0.199     0.116     0.017
  MAY-03-2014 11:52:00      0.300     0.199     0.116     0.017
  MAY-03-2014 11:53:00      0.300     0.199     0.116     0.017
  MAY-03-2014 11:54:00      0.300     0.199     0.116     0.017
  MAY-03-2014 11:55:00      0.300     0.199     0.116     0.017
  MAY-03-2014 11:56:00      0.300     0.199     0.116     0.017
  MAY-03-2014 11:57:00      0.300     0.199     0.116     0.017
  MAY-03-2014 11:58:00      0.300     0.199     0.116     0.017
  MAY-03-2014 11:59:00      0.300     0.199     0.116     0.017
  MAY-03-2014 12:00:00      0.300     0.199     0.116     0.017
  

  Analysis begun on:  Wed Jun 17 16:57:40 2015
  Analysis ended on:  Wed Jun 17 16:57:44 2015
  Total elapsed time: 00:00:04